file 4927014 1745676116                                         
version 2
run canvas-0-20250426-14:01:02-45945
attr configname canvas
attr datetime 20250426-14:01:02
attr experiment canvas
attr inifile omnetpp.ini
attr iterationvars ""
attr iterationvarsf ""
attr measurement ""
attr network Scenario
attr processid 45945
attr repetition 0
attr replication #0
attr resultdir results
attr runnumber 0
attr seedset 0
param *.visualizer.*.obstacleLossVisualizer.displayIntersections true
param *.visualizer.*.obstacleLossVisualizer.displayFaceNormalVectors true
param *.visualizer.*.obstacleLossVisualizer.intersectionLineColor "\"yellow\""
param *.visualizer.*.mediumVisualizer.signalPropagationAnimationSpeed 500/3e8
param *.visualizer.*.mediumVisualizer.signalTransmissionAnimationSpeed 50000/3e8
param *.visualizer.*.mediumVisualizer.displaySignals true
param *.visualizer.canvasVisualizer.mediumVisualizer.displaySignalDepartures false
param *.visualizer.canvasVisualizer.mediumVisualizer.displaySignalArrivals false
param *.visualizer.*.physicalLinkVisualizer.displayLinks true
param *.visualizer.osgVisualizer.typename "\"\""
param *.RSU.numApps 4
param *.RSU.app[0].typename "\"NJSPingApp\""
param *.RSU.app[0].destAddr "\"*\""
param *.RSU.app[0].sendInterval 20ms
param *.RSU.app[0].startTime 2s
param *.RSU.app[1].typename "\"NJSLoggingApp\""
param *.RSU.app[1].cleanAfterEachCalculation false
param *.RSU.app[2].typename "\"NJSLegacyLoggingApp\""
param *.RSU.app[2].cleanAfterEachCalculation false
param *.RSU.app[3].typename "\"SNRLoggingApp\""
param *.RSU.app[3].cleanAfterEachCalculation false
param *.RSU.wlan[*].radio.displayCommunicationRange true
param *.jammer.mobility.typename "\"StationaryMobility\""
param *.jammer.numApps 1
param *.jammer.app[0].typename "\"NJSJammerApp\""
param *.jammer.app[0].destAddr "\"\""
param *.jammer.app[0].sendInterval 5ms
param *.jammer.app[0].packetSize 8B
param *.jammer.app[0].jammingSourceAddress "\"jammer\""
param *.jammer.app[0].isProactive true
param *.jammer.app[0].useProximity true
param *.jammer.app[0].jammingRadius 215m
param *.jammer.wlan[*].radio.displayCommunicationRange true
param *.jammer.wlan[*].radio.transmitter.power 1.6mW
param *.node[*].numApps 2
param *.node[*].app[0].typename "\"NJSPingApp\""
param *.node[*].app[0].destAddr "\"RSU\""
param *.node[*].app[0].sendInterval 80ms
param *.node[*].app[0].packetSize 1518B
param *.node[*].app[1].typename "\"SNRPingApp\""
param *.node[*].app[1].destAddr "\"RSU\""
param *.node[*].app[1].sendInterval 80ms
param *.node[*].app[1].packetSize 1518B
param *.RSU.wlan[*].radio.transmitter.power 15mW
param *.node[*].wlan[*].radio.transmitter.power 15mW
param **.wlan[*].radio.transmitter.bitrate 2Mbps
param **.wlan[*].radio.transmitter.headerLength 272B
param **.wlan[*].radio.transmitter.centerFrequency 2.4GHz
param **.wlan[*].radio.receiver.sensitivity -85dBm
param **.wlan[*].radio.receiver.snirThreshold 4dB
param *.node[*].mobility.typename "\"VeinsInetMobility\""
param **.constraintAreaMinX 0m
param **.constraintAreaMinY 0m
param **.constraintAreaMinZ 0m
param **.constraintAreaMaxX 5500m
param **.constraintAreaMaxY 5500m
param **.constraintAreaMaxZ 50m
param *.manager.updateInterval 1s
param *.manager.host "\"localhost\""
param *.manager.port 9999
param *.manager.numVehicles 1
param *.manager.autoShutdown true
param *.manager.launchConfig "xmldoc(\"erlangen.launchd.xml\")"
param *.obstacles.obstacles "xmldoc(\"config.xml\", \"//AnalogueModel[@type='SimpleObstacleShadowing']/obstacles\")"
param *.manager.moduleType "\"inetwirelesstutorial.veins_inet.VeinsInetCar\""
param *.physicalEnvironment.config "xmldoc(\"obstacles.xml\")"
param *.radioMedium.obstacleLoss.typename "\"IdealObstacleLoss\""

vector 0 Scenario.RSU.wlan[0].radio radioMode:vector ETV
attr interpolationmode sample-hold
attr source radioModeChanged
attr title "Radio mode, vector"
vector 1 Scenario.RSU.wlan[0].radio radioChannel:vector ETV
attr interpolationmode sample-hold
attr source radioChannelChanged
attr title "Radio channel, vector"
vector 2 Scenario.jammer.wlan[0].radio radioMode:vector ETV
attr interpolationmode sample-hold
attr source radioModeChanged
attr title "Radio mode, vector"
vector 3 Scenario.jammer.wlan[0].radio radioChannel:vector ETV
attr interpolationmode sample-hold
attr source radioChannelChanged
attr title "Radio channel, vector"
vector 4 Scenario.RSU.wlan[0].radio receptionState:vector ETV
attr interpolationmode sample-hold
attr source receptionStateChanged
attr title "Radio reception state, vector"
vector 5 Scenario.jammer.wlan[0].radio receptionState:vector ETV
attr interpolationmode sample-hold
attr source receptionStateChanged
attr title "Radio reception state, vector"
vector 6 Scenario.RSU.wlan[0].mac.dcf.recoveryProcedure contentionWindowChanged:vector ETV
attr interpolationmode sample-hold
attr title "contention window, vector"
vector 7 Scenario.jammer.wlan[0].mac.dcf.recoveryProcedure contentionWindowChanged:vector ETV
attr interpolationmode sample-hold
attr title "contention window, vector"
vector 8 Scenario.node[0].wlan[0].radio radioMode:vector ETV
attr interpolationmode sample-hold
attr source radioModeChanged
attr title "Radio mode, vector"
vector 9 Scenario.node[0].wlan[0].radio radioChannel:vector ETV
attr interpolationmode sample-hold
attr source radioChannelChanged
attr title "Radio channel, vector"
vector 10 Scenario.node[0].wlan[0].radio receptionState:vector ETV
attr interpolationmode sample-hold
attr source receptionStateChanged
attr title "Radio reception state, vector"
vector 11 Scenario.node[0].wlan[0].mac.dcf.recoveryProcedure contentionWindowChanged:vector ETV
attr interpolationmode sample-hold
attr title "contention window, vector"
vector 12 Scenario.node[0].app[0] pingTxSeq:vector ETV
attr interpolationmode none
attr title "ping tx seq, vector"
vector 13 Scenario.node[0].app[1] pingTxSeq:vector ETV
attr interpolationmode none
attr title "ping tx seq, vector"
vector 14 Scenario.node[0].ipv4.ip packetDropNoRouteFound:vector(packetBytes) ETV
attr interpolationmode none
attr source packetDropReasonIsNoRouteFound(packetDropped)
attr title "packet drop: no route found, vector(packetBytes)"
vector 15 Scenario.RSU.app[0] pingTxSeq:vector ETV
attr interpolationmode none
attr title "ping tx seq, vector"
vector 16 Scenario.node[1].wlan[0].radio radioMode:vector ETV
attr interpolationmode sample-hold
attr source radioModeChanged
attr title "Radio mode, vector"
vector 17 Scenario.node[1].wlan[0].radio radioChannel:vector ETV
attr interpolationmode sample-hold
attr source radioChannelChanged
attr title "Radio channel, vector"
vector 18 Scenario.node[1].wlan[0].radio receptionState:vector ETV
attr interpolationmode sample-hold
attr source receptionStateChanged
attr title "Radio reception state, vector"
vector 19 Scenario.node[1].wlan[0].mac.dcf.recoveryProcedure contentionWindowChanged:vector ETV
attr interpolationmode sample-hold
attr title "contention window, vector"
vector 20 Scenario.node[1].app[0] pingTxSeq:vector ETV
attr interpolationmode none
attr title "ping tx seq, vector"
vector 21 Scenario.node[1].app[1] pingTxSeq:vector ETV
attr interpolationmode none
attr title "ping tx seq, vector"
vector 22 Scenario.RSU.lo[0].lo rcvdPkFromHl:vector(packetBytes) ETV
attr interpolationmode none
attr source packetReceivedFromUpper
attr title "packets received from higher layer, vector(packetBytes)"
vector 23 Scenario.RSU.lo[0].lo passedUpPk:vector(packetBytes) ETV
attr interpolationmode none
attr source packetSentToUpper
attr title "packets passed to higher layer, vector(packetBytes)"
vector 24 Scenario.node[1].ipv4.ip packetDropNoRouteFound:vector(packetBytes) ETV
attr interpolationmode none
attr source packetDropReasonIsNoRouteFound(packetDropped)
attr title "packet drop: no route found, vector(packetBytes)"
vector 25 Scenario.RSU.app[0] pingRxSeq:vector ETV
attr interpolationmode none
attr title "ping rx seq, vector"
vector 26 Scenario.node[2].wlan[0].radio radioMode:vector ETV
attr interpolationmode sample-hold
attr source radioModeChanged
attr title "Radio mode, vector"
vector 27 Scenario.node[2].wlan[0].radio radioChannel:vector ETV
attr interpolationmode sample-hold
attr source radioChannelChanged
attr title "Radio channel, vector"
vector 28 Scenario.node[2].wlan[0].radio receptionState:vector ETV
attr interpolationmode sample-hold
attr source receptionStateChanged
attr title "Radio reception state, vector"
vector 29 Scenario.node[2].wlan[0].mac.dcf.recoveryProcedure contentionWindowChanged:vector ETV
attr interpolationmode sample-hold
attr title "contention window, vector"
vector 30 Scenario.node[2].app[0] pingTxSeq:vector ETV
attr interpolationmode none
attr title "ping tx seq, vector"
vector 31 Scenario.node[2].app[1] pingTxSeq:vector ETV
attr interpolationmode none
attr title "ping tx seq, vector"
vector 32 Scenario.node[2].ipv4.ip packetDropNoRouteFound:vector(packetBytes) ETV
attr interpolationmode none
attr source packetDropReasonIsNoRouteFound(packetDropped)
attr title "packet drop: no route found, vector(packetBytes)"
vector 33 Scenario.node[3].wlan[0].radio radioMode:vector ETV
attr interpolationmode sample-hold
attr source radioModeChanged
attr title "Radio mode, vector"
vector 34 Scenario.node[3].wlan[0].radio radioChannel:vector ETV
attr interpolationmode sample-hold
attr source radioChannelChanged
attr title "Radio channel, vector"
vector 35 Scenario.node[3].wlan[0].radio receptionState:vector ETV
attr interpolationmode sample-hold
attr source receptionStateChanged
attr title "Radio reception state, vector"
vector 36 Scenario.node[3].wlan[0].mac.dcf.recoveryProcedure contentionWindowChanged:vector ETV
attr interpolationmode sample-hold
attr title "contention window, vector"
vector 37 Scenario.node[3].app[0] pingTxSeq:vector ETV
attr interpolationmode none
attr title "ping tx seq, vector"
vector 38 Scenario.node[3].app[1] pingTxSeq:vector ETV
attr interpolationmode none
attr title "ping tx seq, vector"
vector 39 Scenario.node[3].ipv4.ip packetDropNoRouteFound:vector(packetBytes) ETV
attr interpolationmode none
attr source packetDropReasonIsNoRouteFound(packetDropped)
attr title "packet drop: no route found, vector(packetBytes)"
vector 40 Scenario.node[4].wlan[0].radio radioMode:vector ETV
attr interpolationmode sample-hold
attr source radioModeChanged
attr title "Radio mode, vector"
vector 41 Scenario.node[4].wlan[0].radio radioChannel:vector ETV
attr interpolationmode sample-hold
attr source radioChannelChanged
attr title "Radio channel, vector"
vector 42 Scenario.node[4].wlan[0].radio receptionState:vector ETV
attr interpolationmode sample-hold
attr source receptionStateChanged
attr title "Radio reception state, vector"
vector 43 Scenario.node[4].wlan[0].mac.dcf.recoveryProcedure contentionWindowChanged:vector ETV
attr interpolationmode sample-hold
attr title "contention window, vector"
vector 44 Scenario.node[4].app[0] pingTxSeq:vector ETV
attr interpolationmode none
attr title "ping tx seq, vector"
vector 45 Scenario.node[4].app[1] pingTxSeq:vector ETV
attr interpolationmode none
attr title "ping tx seq, vector"
vector 46 Scenario.node[4].ipv4.ip packetDropNoRouteFound:vector(packetBytes) ETV
attr interpolationmode none
attr source packetDropReasonIsNoRouteFound(packetDropped)
attr title "packet drop: no route found, vector(packetBytes)"
vector 47 Scenario.node[5].wlan[0].radio radioMode:vector ETV
attr interpolationmode sample-hold
attr source radioModeChanged
attr title "Radio mode, vector"
vector 48 Scenario.node[5].wlan[0].radio radioChannel:vector ETV
attr interpolationmode sample-hold
attr source radioChannelChanged
attr title "Radio channel, vector"
vector 49 Scenario.node[5].wlan[0].radio receptionState:vector ETV
attr interpolationmode sample-hold
attr source receptionStateChanged
attr title "Radio reception state, vector"
vector 50 Scenario.node[5].wlan[0].mac.dcf.recoveryProcedure contentionWindowChanged:vector ETV
attr interpolationmode sample-hold
attr title "contention window, vector"
vector 51 Scenario.node[5].app[0] pingTxSeq:vector ETV
attr interpolationmode none
attr title "ping tx seq, vector"
vector 52 Scenario.node[5].app[1] pingTxSeq:vector ETV
attr interpolationmode none
attr title "ping tx seq, vector"
vector 53 Scenario.node[5].ipv4.ip packetDropNoRouteFound:vector(packetBytes) ETV
attr interpolationmode none
attr source packetDropReasonIsNoRouteFound(packetDropped)
attr title "packet drop: no route found, vector(packetBytes)"
vector 54 Scenario.node[6].wlan[0].radio radioMode:vector ETV
attr interpolationmode sample-hold
attr source radioModeChanged
attr title "Radio mode, vector"
vector 55 Scenario.node[6].wlan[0].radio radioChannel:vector ETV
attr interpolationmode sample-hold
attr source radioChannelChanged
attr title "Radio channel, vector"
vector 56 Scenario.node[6].wlan[0].radio receptionState:vector ETV
attr interpolationmode sample-hold
attr source receptionStateChanged
attr title "Radio reception state, vector"
vector 57 Scenario.node[6].wlan[0].mac.dcf.recoveryProcedure contentionWindowChanged:vector ETV
attr interpolationmode sample-hold
attr title "contention window, vector"
vector 58 Scenario.node[6].app[0] pingTxSeq:vector ETV
attr interpolationmode none
attr title "ping tx seq, vector"
vector 59 Scenario.node[6].app[1] pingTxSeq:vector ETV
attr interpolationmode none
attr title "ping tx seq, vector"
vector 60 Scenario.node[6].ipv4.ip packetDropNoRouteFound:vector(packetBytes) ETV
attr interpolationmode none
attr source packetDropReasonIsNoRouteFound(packetDropped)
attr title "packet drop: no route found, vector(packetBytes)"
vector 61 Scenario.node[7].wlan[0].radio radioMode:vector ETV
attr interpolationmode sample-hold
attr source radioModeChanged
attr title "Radio mode, vector"
vector 62 Scenario.node[7].wlan[0].radio radioChannel:vector ETV
attr interpolationmode sample-hold
attr source radioChannelChanged
attr title "Radio channel, vector"
vector 63 Scenario.node[7].wlan[0].radio receptionState:vector ETV
attr interpolationmode sample-hold
attr source receptionStateChanged
attr title "Radio reception state, vector"
vector 64 Scenario.node[7].wlan[0].mac.dcf.recoveryProcedure contentionWindowChanged:vector ETV
attr interpolationmode sample-hold
attr title "contention window, vector"
vector 65 Scenario.node[7].app[0] pingTxSeq:vector ETV
attr interpolationmode none
attr title "ping tx seq, vector"
vector 66 Scenario.node[7].app[1] pingTxSeq:vector ETV
attr interpolationmode none
attr title "ping tx seq, vector"
vector 67 Scenario.node[7].ipv4.ip packetDropNoRouteFound:vector(packetBytes) ETV
attr interpolationmode none
attr source packetDropReasonIsNoRouteFound(packetDropped)
attr title "packet drop: no route found, vector(packetBytes)"
vector 68 Scenario.node[8].wlan[0].radio radioMode:vector ETV
attr interpolationmode sample-hold
attr source radioModeChanged
attr title "Radio mode, vector"
vector 69 Scenario.node[8].wlan[0].radio radioChannel:vector ETV
attr interpolationmode sample-hold
attr source radioChannelChanged
attr title "Radio channel, vector"
vector 70 Scenario.node[8].wlan[0].radio receptionState:vector ETV
attr interpolationmode sample-hold
attr source receptionStateChanged
attr title "Radio reception state, vector"
vector 71 Scenario.node[8].wlan[0].mac.dcf.recoveryProcedure contentionWindowChanged:vector ETV
attr interpolationmode sample-hold
attr title "contention window, vector"
vector 72 Scenario.node[8].app[0] pingTxSeq:vector ETV
attr interpolationmode none
attr title "ping tx seq, vector"
vector 73 Scenario.node[8].app[1] pingTxSeq:vector ETV
attr interpolationmode none
attr title "ping tx seq, vector"
vector 74 Scenario.node[8].ipv4.ip packetDropNoRouteFound:vector(packetBytes) ETV
attr interpolationmode none
attr source packetDropReasonIsNoRouteFound(packetDropped)
attr title "packet drop: no route found, vector(packetBytes)"
vector 75 Scenario.node[9].wlan[0].radio radioMode:vector ETV
attr interpolationmode sample-hold
attr source radioModeChanged
attr title "Radio mode, vector"
vector 76 Scenario.node[9].wlan[0].radio radioChannel:vector ETV
attr interpolationmode sample-hold
attr source radioChannelChanged
attr title "Radio channel, vector"
vector 77 Scenario.node[9].wlan[0].radio receptionState:vector ETV
attr interpolationmode sample-hold
attr source receptionStateChanged
attr title "Radio reception state, vector"
vector 78 Scenario.node[9].wlan[0].mac.dcf.recoveryProcedure contentionWindowChanged:vector ETV
attr interpolationmode sample-hold
attr title "contention window, vector"
vector 79 Scenario.node[9].app[0] pingTxSeq:vector ETV
attr interpolationmode none
attr title "ping tx seq, vector"
vector 80 Scenario.node[9].app[1] pingTxSeq:vector ETV
attr interpolationmode none
attr title "ping tx seq, vector"
vector 81 Scenario.node[9].ipv4.ip packetDropNoRouteFound:vector(packetBytes) ETV
attr interpolationmode none
attr source packetDropReasonIsNoRouteFound(packetDropped)
attr title "packet drop: no route found, vector(packetBytes)"
vector 82 Scenario.node[10].wlan[0].radio radioMode:vector ETV
attr interpolationmode sample-hold
attr source radioModeChanged
attr title "Radio mode, vector"
vector 83 Scenario.node[10].wlan[0].radio radioChannel:vector ETV
attr interpolationmode sample-hold
attr source radioChannelChanged
attr title "Radio channel, vector"
vector 84 Scenario.node[10].wlan[0].radio receptionState:vector ETV
attr interpolationmode sample-hold
attr source receptionStateChanged
attr title "Radio reception state, vector"
vector 85 Scenario.node[10].wlan[0].mac.dcf.recoveryProcedure contentionWindowChanged:vector ETV
attr interpolationmode sample-hold
attr title "contention window, vector"
vector 86 Scenario.node[10].app[0] pingTxSeq:vector ETV
attr interpolationmode none
attr title "ping tx seq, vector"
vector 87 Scenario.node[10].app[1] pingTxSeq:vector ETV
attr interpolationmode none
attr title "ping tx seq, vector"
vector 88 Scenario.node[10].ipv4.ip packetDropNoRouteFound:vector(packetBytes) ETV
attr interpolationmode none
attr source packetDropReasonIsNoRouteFound(packetDropped)
attr title "packet drop: no route found, vector(packetBytes)"
vector 89 Scenario.node[11].wlan[0].radio radioMode:vector ETV
attr interpolationmode sample-hold
attr source radioModeChanged
attr title "Radio mode, vector"
vector 90 Scenario.node[11].wlan[0].radio radioChannel:vector ETV
attr interpolationmode sample-hold
attr source radioChannelChanged
attr title "Radio channel, vector"
vector 91 Scenario.node[11].wlan[0].radio receptionState:vector ETV
attr interpolationmode sample-hold
attr source receptionStateChanged
attr title "Radio reception state, vector"
vector 92 Scenario.node[11].wlan[0].mac.dcf.recoveryProcedure contentionWindowChanged:vector ETV
attr interpolationmode sample-hold
attr title "contention window, vector"
vector 93 Scenario.node[11].app[0] pingTxSeq:vector ETV
attr interpolationmode none
attr title "ping tx seq, vector"
vector 94 Scenario.node[11].app[1] pingTxSeq:vector ETV
attr interpolationmode none
attr title "ping tx seq, vector"
vector 95 Scenario.node[11].ipv4.ip packetDropNoRouteFound:vector(packetBytes) ETV
attr interpolationmode none
attr source packetDropReasonIsNoRouteFound(packetDropped)
attr title "packet drop: no route found, vector(packetBytes)"
vector 96 Scenario.node[12].wlan[0].radio radioMode:vector ETV
attr interpolationmode sample-hold
attr source radioModeChanged
attr title "Radio mode, vector"
vector 97 Scenario.node[12].wlan[0].radio radioChannel:vector ETV
attr interpolationmode sample-hold
attr source radioChannelChanged
attr title "Radio channel, vector"
vector 98 Scenario.node[12].wlan[0].radio receptionState:vector ETV
attr interpolationmode sample-hold
attr source receptionStateChanged
attr title "Radio reception state, vector"
vector 99 Scenario.node[12].wlan[0].mac.dcf.recoveryProcedure contentionWindowChanged:vector ETV
attr interpolationmode sample-hold
attr title "contention window, vector"
vector 100 Scenario.node[12].app[0] pingTxSeq:vector ETV
attr interpolationmode none
attr title "ping tx seq, vector"
vector 101 Scenario.node[12].app[1] pingTxSeq:vector ETV
attr interpolationmode none
attr title "ping tx seq, vector"
vector 102 Scenario.node[12].ipv4.ip packetDropNoRouteFound:vector(packetBytes) ETV
attr interpolationmode none
attr source packetDropReasonIsNoRouteFound(packetDropped)
attr title "packet drop: no route found, vector(packetBytes)"
vector 103 Scenario.node[13].wlan[0].radio radioMode:vector ETV
attr interpolationmode sample-hold
attr source radioModeChanged
attr title "Radio mode, vector"
vector 104 Scenario.node[13].wlan[0].radio radioChannel:vector ETV
attr interpolationmode sample-hold
attr source radioChannelChanged
attr title "Radio channel, vector"
vector 105 Scenario.node[13].wlan[0].radio receptionState:vector ETV
attr interpolationmode sample-hold
attr source receptionStateChanged
attr title "Radio reception state, vector"
vector 106 Scenario.node[13].wlan[0].mac.dcf.recoveryProcedure contentionWindowChanged:vector ETV
attr interpolationmode sample-hold
attr title "contention window, vector"
vector 107 Scenario.node[13].app[0] pingTxSeq:vector ETV
attr interpolationmode none
attr title "ping tx seq, vector"
vector 108 Scenario.node[13].app[1] pingTxSeq:vector ETV
attr interpolationmode none
attr title "ping tx seq, vector"
vector 109 Scenario.node[13].ipv4.ip packetDropNoRouteFound:vector(packetBytes) ETV
attr interpolationmode none
attr source packetDropReasonIsNoRouteFound(packetDropped)
attr title "packet drop: no route found, vector(packetBytes)"
vector 110 Scenario.node[14].wlan[0].radio radioMode:vector ETV
attr interpolationmode sample-hold
attr source radioModeChanged
attr title "Radio mode, vector"
vector 111 Scenario.node[14].wlan[0].radio radioChannel:vector ETV
attr interpolationmode sample-hold
attr source radioChannelChanged
attr title "Radio channel, vector"
vector 112 Scenario.node[14].wlan[0].radio receptionState:vector ETV
attr interpolationmode sample-hold
attr source receptionStateChanged
attr title "Radio reception state, vector"
vector 113 Scenario.node[14].wlan[0].mac.dcf.recoveryProcedure contentionWindowChanged:vector ETV
attr interpolationmode sample-hold
attr title "contention window, vector"
vector 114 Scenario.node[14].app[0] pingTxSeq:vector ETV
attr interpolationmode none
attr title "ping tx seq, vector"
vector 115 Scenario.node[14].app[1] pingTxSeq:vector ETV
attr interpolationmode none
attr title "ping tx seq, vector"
vector 116 Scenario.node[14].ipv4.ip packetDropNoRouteFound:vector(packetBytes) ETV
attr interpolationmode none
attr source packetDropReasonIsNoRouteFound(packetDropped)
attr title "packet drop: no route found, vector(packetBytes)"
vector 117 Scenario.node[15].wlan[0].radio radioMode:vector ETV
attr interpolationmode sample-hold
attr source radioModeChanged
attr title "Radio mode, vector"
vector 118 Scenario.node[15].wlan[0].radio radioChannel:vector ETV
attr interpolationmode sample-hold
attr source radioChannelChanged
attr title "Radio channel, vector"
vector 119 Scenario.node[15].wlan[0].radio receptionState:vector ETV
attr interpolationmode sample-hold
attr source receptionStateChanged
attr title "Radio reception state, vector"
vector 120 Scenario.node[15].wlan[0].mac.dcf.recoveryProcedure contentionWindowChanged:vector ETV
attr interpolationmode sample-hold
attr title "contention window, vector"
vector 121 Scenario.node[15].app[0] pingTxSeq:vector ETV
attr interpolationmode none
attr title "ping tx seq, vector"
vector 122 Scenario.node[15].app[1] pingTxSeq:vector ETV
attr interpolationmode none
attr title "ping tx seq, vector"
vector 123 Scenario.node[15].ipv4.ip packetDropNoRouteFound:vector(packetBytes) ETV
attr interpolationmode none
attr source packetDropReasonIsNoRouteFound(packetDropped)
attr title "packet drop: no route found, vector(packetBytes)"
vector 124 Scenario.node[16].wlan[0].radio radioMode:vector ETV
attr interpolationmode sample-hold
attr source radioModeChanged
attr title "Radio mode, vector"
vector 125 Scenario.node[16].wlan[0].radio radioChannel:vector ETV
attr interpolationmode sample-hold
attr source radioChannelChanged
attr title "Radio channel, vector"
vector 126 Scenario.node[16].wlan[0].radio receptionState:vector ETV
attr interpolationmode sample-hold
attr source receptionStateChanged
attr title "Radio reception state, vector"
vector 127 Scenario.node[16].wlan[0].mac.dcf.recoveryProcedure contentionWindowChanged:vector ETV
attr interpolationmode sample-hold
attr title "contention window, vector"
vector 128 Scenario.node[16].app[0] pingTxSeq:vector ETV
attr interpolationmode none
attr title "ping tx seq, vector"
vector 129 Scenario.node[16].app[1] pingTxSeq:vector ETV
attr interpolationmode none
attr title "ping tx seq, vector"
vector 130 Scenario.node[16].ipv4.ip packetDropNoRouteFound:vector(packetBytes) ETV
attr interpolationmode none
attr source packetDropReasonIsNoRouteFound(packetDropped)
attr title "packet drop: no route found, vector(packetBytes)"
vector 131 Scenario.node[17].wlan[0].radio radioMode:vector ETV
attr interpolationmode sample-hold
attr source radioModeChanged
attr title "Radio mode, vector"
vector 132 Scenario.node[17].wlan[0].radio radioChannel:vector ETV
attr interpolationmode sample-hold
attr source radioChannelChanged
attr title "Radio channel, vector"
vector 133 Scenario.node[17].wlan[0].radio receptionState:vector ETV
attr interpolationmode sample-hold
attr source receptionStateChanged
attr title "Radio reception state, vector"
vector 134 Scenario.node[17].wlan[0].mac.dcf.recoveryProcedure contentionWindowChanged:vector ETV
attr interpolationmode sample-hold
attr title "contention window, vector"
vector 135 Scenario.node[17].app[0] pingTxSeq:vector ETV
attr interpolationmode none
attr title "ping tx seq, vector"
vector 136 Scenario.node[17].app[1] pingTxSeq:vector ETV
attr interpolationmode none
attr title "ping tx seq, vector"
vector 137 Scenario.node[17].ipv4.ip packetDropNoRouteFound:vector(packetBytes) ETV
attr interpolationmode none
attr source packetDropReasonIsNoRouteFound(packetDropped)
attr title "packet drop: no route found, vector(packetBytes)"
vector 138 Scenario.node[18].wlan[0].radio radioMode:vector ETV
attr interpolationmode sample-hold
attr source radioModeChanged
attr title "Radio mode, vector"
vector 139 Scenario.node[18].wlan[0].radio radioChannel:vector ETV
attr interpolationmode sample-hold
attr source radioChannelChanged
attr title "Radio channel, vector"
vector 140 Scenario.node[18].wlan[0].radio receptionState:vector ETV
attr interpolationmode sample-hold
attr source receptionStateChanged
attr title "Radio reception state, vector"
vector 141 Scenario.node[18].wlan[0].mac.dcf.recoveryProcedure contentionWindowChanged:vector ETV
attr interpolationmode sample-hold
attr title "contention window, vector"
vector 142 Scenario.node[19].wlan[0].radio radioMode:vector ETV
attr interpolationmode sample-hold
attr source radioModeChanged
attr title "Radio mode, vector"
vector 143 Scenario.node[19].wlan[0].radio radioChannel:vector ETV
attr interpolationmode sample-hold
attr source radioChannelChanged
attr title "Radio channel, vector"
vector 144 Scenario.node[19].wlan[0].radio receptionState:vector ETV
attr interpolationmode sample-hold
attr source receptionStateChanged
attr title "Radio reception state, vector"
vector 145 Scenario.node[19].wlan[0].mac.dcf.recoveryProcedure contentionWindowChanged:vector ETV
attr interpolationmode sample-hold
attr title "contention window, vector"
vector 146 Scenario.node[18].app[0] pingTxSeq:vector ETV
attr interpolationmode none
attr title "ping tx seq, vector"
vector 147 Scenario.node[18].app[1] pingTxSeq:vector ETV
attr interpolationmode none
attr title "ping tx seq, vector"
vector 148 Scenario.node[19].app[0] pingTxSeq:vector ETV
attr interpolationmode none
attr title "ping tx seq, vector"
vector 149 Scenario.node[19].app[1] pingTxSeq:vector ETV
attr interpolationmode none
attr title "ping tx seq, vector"
vector 150 Scenario.node[18].ipv4.ip packetDropNoRouteFound:vector(packetBytes) ETV
attr interpolationmode none
attr source packetDropReasonIsNoRouteFound(packetDropped)
attr title "packet drop: no route found, vector(packetBytes)"
vector 151 Scenario.node[19].ipv4.ip packetDropNoRouteFound:vector(packetBytes) ETV
attr interpolationmode none
attr source packetDropReasonIsNoRouteFound(packetDropped)
attr title "packet drop: no route found, vector(packetBytes)"
vector 152 Scenario.node[20].wlan[0].radio radioMode:vector ETV
attr interpolationmode sample-hold
attr source radioModeChanged
attr title "Radio mode, vector"
vector 153 Scenario.node[20].wlan[0].radio radioChannel:vector ETV
attr interpolationmode sample-hold
attr source radioChannelChanged
attr title "Radio channel, vector"
vector 154 Scenario.node[20].wlan[0].radio receptionState:vector ETV
attr interpolationmode sample-hold
attr source receptionStateChanged
attr title "Radio reception state, vector"
vector 155 Scenario.node[20].wlan[0].mac.dcf.recoveryProcedure contentionWindowChanged:vector ETV
attr interpolationmode sample-hold
attr title "contention window, vector"
vector 156 Scenario.node[20].app[0] pingTxSeq:vector ETV
attr interpolationmode none
attr title "ping tx seq, vector"
vector 157 Scenario.node[20].app[1] pingTxSeq:vector ETV
attr interpolationmode none
attr title "ping tx seq, vector"
vector 158 Scenario.node[20].ipv4.ip packetDropNoRouteFound:vector(packetBytes) ETV
attr interpolationmode none
attr source packetDropReasonIsNoRouteFound(packetDropped)
attr title "packet drop: no route found, vector(packetBytes)"
vector 159 Scenario.node[21].wlan[0].radio radioMode:vector ETV
attr interpolationmode sample-hold
attr source radioModeChanged
attr title "Radio mode, vector"
vector 160 Scenario.node[21].wlan[0].radio radioChannel:vector ETV
attr interpolationmode sample-hold
attr source radioChannelChanged
attr title "Radio channel, vector"
vector 161 Scenario.node[21].wlan[0].radio receptionState:vector ETV
attr interpolationmode sample-hold
attr source receptionStateChanged
attr title "Radio reception state, vector"
vector 162 Scenario.node[21].wlan[0].mac.dcf.recoveryProcedure contentionWindowChanged:vector ETV
attr interpolationmode sample-hold
attr title "contention window, vector"
vector 163 Scenario.node[21].app[0] pingTxSeq:vector ETV
attr interpolationmode none
attr title "ping tx seq, vector"
vector 164 Scenario.node[21].app[1] pingTxSeq:vector ETV
attr interpolationmode none
attr title "ping tx seq, vector"
vector 165 Scenario.node[21].ipv4.ip packetDropNoRouteFound:vector(packetBytes) ETV
attr interpolationmode none
attr source packetDropReasonIsNoRouteFound(packetDropped)
attr title "packet drop: no route found, vector(packetBytes)"
vector 166 Scenario.node[22].wlan[0].radio radioMode:vector ETV
attr interpolationmode sample-hold
attr source radioModeChanged
attr title "Radio mode, vector"
vector 167 Scenario.node[22].wlan[0].radio radioChannel:vector ETV
attr interpolationmode sample-hold
attr source radioChannelChanged
attr title "Radio channel, vector"
vector 168 Scenario.node[22].wlan[0].radio receptionState:vector ETV
attr interpolationmode sample-hold
attr source receptionStateChanged
attr title "Radio reception state, vector"
vector 169 Scenario.node[22].wlan[0].mac.dcf.recoveryProcedure contentionWindowChanged:vector ETV
attr interpolationmode sample-hold
attr title "contention window, vector"
vector 170 Scenario.node[22].app[0] pingTxSeq:vector ETV
attr interpolationmode none
attr title "ping tx seq, vector"
vector 171 Scenario.node[22].app[1] pingTxSeq:vector ETV
attr interpolationmode none
attr title "ping tx seq, vector"
vector 172 Scenario.node[22].ipv4.ip packetDropNoRouteFound:vector(packetBytes) ETV
attr interpolationmode none
attr source packetDropReasonIsNoRouteFound(packetDropped)
attr title "packet drop: no route found, vector(packetBytes)"
vector 173 Scenario.node[23].wlan[0].radio radioMode:vector ETV
attr interpolationmode sample-hold
attr source radioModeChanged
attr title "Radio mode, vector"
vector 174 Scenario.node[23].wlan[0].radio radioChannel:vector ETV
attr interpolationmode sample-hold
attr source radioChannelChanged
attr title "Radio channel, vector"
vector 175 Scenario.node[23].wlan[0].radio receptionState:vector ETV
attr interpolationmode sample-hold
attr source receptionStateChanged
attr title "Radio reception state, vector"
vector 176 Scenario.node[23].wlan[0].mac.dcf.recoveryProcedure contentionWindowChanged:vector ETV
attr interpolationmode sample-hold
attr title "contention window, vector"
vector 177 Scenario.node[23].app[0] pingTxSeq:vector ETV
attr interpolationmode none
attr title "ping tx seq, vector"
vector 178 Scenario.node[23].app[1] pingTxSeq:vector ETV
attr interpolationmode none
attr title "ping tx seq, vector"
vector 179 Scenario.node[23].ipv4.ip packetDropNoRouteFound:vector(packetBytes) ETV
attr interpolationmode none
attr source packetDropReasonIsNoRouteFound(packetDropped)
attr title "packet drop: no route found, vector(packetBytes)"
vector 180 Scenario.node[24].wlan[0].radio radioMode:vector ETV
attr interpolationmode sample-hold
attr source radioModeChanged
attr title "Radio mode, vector"
vector 181 Scenario.node[24].wlan[0].radio radioChannel:vector ETV
attr interpolationmode sample-hold
attr source radioChannelChanged
attr title "Radio channel, vector"
vector 182 Scenario.node[24].wlan[0].radio receptionState:vector ETV
attr interpolationmode sample-hold
attr source receptionStateChanged
attr title "Radio reception state, vector"
vector 183 Scenario.node[24].wlan[0].mac.dcf.recoveryProcedure contentionWindowChanged:vector ETV
attr interpolationmode sample-hold
attr title "contention window, vector"
vector 184 Scenario.node[24].app[0] pingTxSeq:vector ETV
attr interpolationmode none
attr title "ping tx seq, vector"
vector 185 Scenario.node[24].app[1] pingTxSeq:vector ETV
attr interpolationmode none
attr title "ping tx seq, vector"
vector 186 Scenario.node[24].ipv4.ip packetDropNoRouteFound:vector(packetBytes) ETV
attr interpolationmode none
attr source packetDropReasonIsNoRouteFound(packetDropped)
attr title "packet drop: no route found, vector(packetBytes)"
vector 187 Scenario.node[25].wlan[0].radio radioMode:vector ETV
attr interpolationmode sample-hold
attr source radioModeChanged
attr title "Radio mode, vector"
vector 188 Scenario.node[25].wlan[0].radio radioChannel:vector ETV
attr interpolationmode sample-hold
attr source radioChannelChanged
attr title "Radio channel, vector"
vector 189 Scenario.node[25].wlan[0].radio receptionState:vector ETV
attr interpolationmode sample-hold
attr source receptionStateChanged
attr title "Radio reception state, vector"
vector 190 Scenario.node[25].wlan[0].mac.dcf.recoveryProcedure contentionWindowChanged:vector ETV
attr interpolationmode sample-hold
attr title "contention window, vector"
vector 191 Scenario.node[25].app[0] pingTxSeq:vector ETV
attr interpolationmode none
attr title "ping tx seq, vector"
vector 192 Scenario.node[25].app[1] pingTxSeq:vector ETV
attr interpolationmode none
attr title "ping tx seq, vector"
vector 193 Scenario.node[25].ipv4.ip packetDropNoRouteFound:vector(packetBytes) ETV
attr interpolationmode none
attr source packetDropReasonIsNoRouteFound(packetDropped)
attr title "packet drop: no route found, vector(packetBytes)"
vector 194 Scenario.node[26].wlan[0].radio radioMode:vector ETV
attr interpolationmode sample-hold
attr source radioModeChanged
attr title "Radio mode, vector"
vector 195 Scenario.node[26].wlan[0].radio radioChannel:vector ETV
attr interpolationmode sample-hold
attr source radioChannelChanged
attr title "Radio channel, vector"
vector 196 Scenario.node[26].wlan[0].radio receptionState:vector ETV
attr interpolationmode sample-hold
attr source receptionStateChanged
attr title "Radio reception state, vector"
vector 197 Scenario.node[26].wlan[0].mac.dcf.recoveryProcedure contentionWindowChanged:vector ETV
attr interpolationmode sample-hold
attr title "contention window, vector"
vector 198 Scenario.node[26].app[0] pingTxSeq:vector ETV
attr interpolationmode none
attr title "ping tx seq, vector"
vector 199 Scenario.node[26].app[1] pingTxSeq:vector ETV
attr interpolationmode none
attr title "ping tx seq, vector"
vector 200 Scenario.node[26].ipv4.ip packetDropNoRouteFound:vector(packetBytes) ETV
attr interpolationmode none
attr source packetDropReasonIsNoRouteFound(packetDropped)
attr title "packet drop: no route found, vector(packetBytes)"
vector 201 Scenario.node[27].wlan[0].radio radioMode:vector ETV
attr interpolationmode sample-hold
attr source radioModeChanged
attr title "Radio mode, vector"
vector 202 Scenario.node[27].wlan[0].radio radioChannel:vector ETV
attr interpolationmode sample-hold
attr source radioChannelChanged
attr title "Radio channel, vector"
vector 203 Scenario.node[27].wlan[0].radio receptionState:vector ETV
attr interpolationmode sample-hold
attr source receptionStateChanged
attr title "Radio reception state, vector"
vector 204 Scenario.node[27].wlan[0].mac.dcf.recoveryProcedure contentionWindowChanged:vector ETV
attr interpolationmode sample-hold
attr title "contention window, vector"
vector 205 Scenario.node[27].app[0] pingTxSeq:vector ETV
attr interpolationmode none
attr title "ping tx seq, vector"
vector 206 Scenario.node[27].app[1] pingTxSeq:vector ETV
attr interpolationmode none
attr title "ping tx seq, vector"
vector 207 Scenario.node[27].ipv4.ip packetDropNoRouteFound:vector(packetBytes) ETV
attr interpolationmode none
attr source packetDropReasonIsNoRouteFound(packetDropped)
attr title "packet drop: no route found, vector(packetBytes)"
vector 208 Scenario.node[28].wlan[0].radio radioMode:vector ETV
attr interpolationmode sample-hold
attr source radioModeChanged
attr title "Radio mode, vector"
vector 209 Scenario.node[28].wlan[0].radio radioChannel:vector ETV
attr interpolationmode sample-hold
attr source radioChannelChanged
attr title "Radio channel, vector"
vector 210 Scenario.node[28].wlan[0].radio receptionState:vector ETV
attr interpolationmode sample-hold
attr source receptionStateChanged
attr title "Radio reception state, vector"
vector 211 Scenario.node[28].wlan[0].mac.dcf.recoveryProcedure contentionWindowChanged:vector ETV
attr interpolationmode sample-hold
attr title "contention window, vector"
vector 212 Scenario.node[28].app[0] pingTxSeq:vector ETV
attr interpolationmode none
attr title "ping tx seq, vector"
vector 213 Scenario.node[28].app[1] pingTxSeq:vector ETV
attr interpolationmode none
attr title "ping tx seq, vector"
vector 214 Scenario.node[28].ipv4.ip packetDropNoRouteFound:vector(packetBytes) ETV
attr interpolationmode none
attr source packetDropReasonIsNoRouteFound(packetDropped)
attr title "packet drop: no route found, vector(packetBytes)"
vector 215 Scenario.node[29].wlan[0].radio radioMode:vector ETV
attr interpolationmode sample-hold
attr source radioModeChanged
attr title "Radio mode, vector"
vector 216 Scenario.node[29].wlan[0].radio radioChannel:vector ETV
attr interpolationmode sample-hold
attr source radioChannelChanged
attr title "Radio channel, vector"
vector 217 Scenario.node[29].wlan[0].radio receptionState:vector ETV
attr interpolationmode sample-hold
attr source receptionStateChanged
attr title "Radio reception state, vector"
vector 218 Scenario.node[29].wlan[0].mac.dcf.recoveryProcedure contentionWindowChanged:vector ETV
attr interpolationmode sample-hold
attr title "contention window, vector"
vector 219 Scenario.node[29].app[0] pingTxSeq:vector ETV
attr interpolationmode none
attr title "ping tx seq, vector"
vector 220 Scenario.node[29].app[1] pingTxSeq:vector ETV
attr interpolationmode none
attr title "ping tx seq, vector"
vector 221 Scenario.node[29].ipv4.ip packetDropNoRouteFound:vector(packetBytes) ETV
attr interpolationmode none
attr source packetDropReasonIsNoRouteFound(packetDropped)
attr title "packet drop: no route found, vector(packetBytes)"
vector 222 Scenario.node[30].wlan[0].radio radioMode:vector ETV
attr interpolationmode sample-hold
attr source radioModeChanged
attr title "Radio mode, vector"
vector 223 Scenario.node[30].wlan[0].radio radioChannel:vector ETV
attr interpolationmode sample-hold
attr source radioChannelChanged
attr title "Radio channel, vector"
vector 224 Scenario.node[30].wlan[0].radio receptionState:vector ETV
attr interpolationmode sample-hold
attr source receptionStateChanged
attr title "Radio reception state, vector"
vector 225 Scenario.node[30].wlan[0].mac.dcf.recoveryProcedure contentionWindowChanged:vector ETV
attr interpolationmode sample-hold
attr title "contention window, vector"
vector 226 Scenario.node[30].app[0] pingTxSeq:vector ETV
attr interpolationmode none
attr title "ping tx seq, vector"
vector 227 Scenario.node[30].app[1] pingTxSeq:vector ETV
attr interpolationmode none
attr title "ping tx seq, vector"
vector 228 Scenario.node[30].ipv4.ip packetDropNoRouteFound:vector(packetBytes) ETV
attr interpolationmode none
attr source packetDropReasonIsNoRouteFound(packetDropped)
attr title "packet drop: no route found, vector(packetBytes)"
vector 229 Scenario.node[31].wlan[0].radio radioMode:vector ETV
attr interpolationmode sample-hold
attr source radioModeChanged
attr title "Radio mode, vector"
vector 230 Scenario.node[31].wlan[0].radio radioChannel:vector ETV
attr interpolationmode sample-hold
attr source radioChannelChanged
attr title "Radio channel, vector"
vector 231 Scenario.node[31].wlan[0].radio receptionState:vector ETV
attr interpolationmode sample-hold
attr source receptionStateChanged
attr title "Radio reception state, vector"
vector 232 Scenario.node[31].wlan[0].mac.dcf.recoveryProcedure contentionWindowChanged:vector ETV
attr interpolationmode sample-hold
attr title "contention window, vector"
vector 233 Scenario.node[32].wlan[0].radio radioMode:vector ETV
attr interpolationmode sample-hold
attr source radioModeChanged
attr title "Radio mode, vector"
vector 234 Scenario.node[32].wlan[0].radio radioChannel:vector ETV
attr interpolationmode sample-hold
attr source radioChannelChanged
attr title "Radio channel, vector"
vector 235 Scenario.node[32].wlan[0].radio receptionState:vector ETV
attr interpolationmode sample-hold
attr source receptionStateChanged
attr title "Radio reception state, vector"
vector 236 Scenario.node[32].wlan[0].mac.dcf.recoveryProcedure contentionWindowChanged:vector ETV
attr interpolationmode sample-hold
attr title "contention window, vector"
vector 237 Scenario.node[31].app[0] pingTxSeq:vector ETV
attr interpolationmode none
attr title "ping tx seq, vector"
vector 238 Scenario.node[31].app[1] pingTxSeq:vector ETV
attr interpolationmode none
attr title "ping tx seq, vector"
vector 239 Scenario.node[32].app[0] pingTxSeq:vector ETV
attr interpolationmode none
attr title "ping tx seq, vector"
vector 240 Scenario.node[32].app[1] pingTxSeq:vector ETV
attr interpolationmode none
attr title "ping tx seq, vector"
vector 241 Scenario.node[31].ipv4.ip packetDropNoRouteFound:vector(packetBytes) ETV
attr interpolationmode none
attr source packetDropReasonIsNoRouteFound(packetDropped)
attr title "packet drop: no route found, vector(packetBytes)"
vector 242 Scenario.node[32].ipv4.ip packetDropNoRouteFound:vector(packetBytes) ETV
attr interpolationmode none
attr source packetDropReasonIsNoRouteFound(packetDropped)
attr title "packet drop: no route found, vector(packetBytes)"
vector 243 Scenario.node[33].wlan[0].radio radioMode:vector ETV
attr interpolationmode sample-hold
attr source radioModeChanged
attr title "Radio mode, vector"
vector 244 Scenario.node[33].wlan[0].radio radioChannel:vector ETV
attr interpolationmode sample-hold
attr source radioChannelChanged
attr title "Radio channel, vector"
vector 245 Scenario.node[33].wlan[0].radio receptionState:vector ETV
attr interpolationmode sample-hold
attr source receptionStateChanged
attr title "Radio reception state, vector"
vector 246 Scenario.node[33].wlan[0].mac.dcf.recoveryProcedure contentionWindowChanged:vector ETV
attr interpolationmode sample-hold
attr title "contention window, vector"
vector 247 Scenario.node[33].app[0] pingTxSeq:vector ETV
attr interpolationmode none
attr title "ping tx seq, vector"
vector 248 Scenario.node[33].app[1] pingTxSeq:vector ETV
attr interpolationmode none
attr title "ping tx seq, vector"
vector 249 Scenario.node[33].ipv4.ip packetDropNoRouteFound:vector(packetBytes) ETV
attr interpolationmode none
attr source packetDropReasonIsNoRouteFound(packetDropped)
attr title "packet drop: no route found, vector(packetBytes)"
vector 250 Scenario.node[34].wlan[0].radio radioMode:vector ETV
attr interpolationmode sample-hold
attr source radioModeChanged
attr title "Radio mode, vector"
vector 251 Scenario.node[34].wlan[0].radio radioChannel:vector ETV
attr interpolationmode sample-hold
attr source radioChannelChanged
attr title "Radio channel, vector"
vector 252 Scenario.node[34].wlan[0].radio receptionState:vector ETV
attr interpolationmode sample-hold
attr source receptionStateChanged
attr title "Radio reception state, vector"
vector 253 Scenario.node[34].wlan[0].mac.dcf.recoveryProcedure contentionWindowChanged:vector ETV
attr interpolationmode sample-hold
attr title "contention window, vector"
vector 254 Scenario.node[34].app[0] pingTxSeq:vector ETV
attr interpolationmode none
attr title "ping tx seq, vector"
vector 255 Scenario.node[34].app[1] pingTxSeq:vector ETV
attr interpolationmode none
attr title "ping tx seq, vector"
vector 256 Scenario.node[34].ipv4.ip packetDropNoRouteFound:vector(packetBytes) ETV
attr interpolationmode none
attr source packetDropReasonIsNoRouteFound(packetDropped)
attr title "packet drop: no route found, vector(packetBytes)"
vector 257 Scenario.node[35].wlan[0].radio radioMode:vector ETV
attr interpolationmode sample-hold
attr source radioModeChanged
attr title "Radio mode, vector"
vector 258 Scenario.node[35].wlan[0].radio radioChannel:vector ETV
attr interpolationmode sample-hold
attr source radioChannelChanged
attr title "Radio channel, vector"
vector 259 Scenario.node[35].wlan[0].radio receptionState:vector ETV
attr interpolationmode sample-hold
attr source receptionStateChanged
attr title "Radio reception state, vector"
vector 260 Scenario.node[35].wlan[0].mac.dcf.recoveryProcedure contentionWindowChanged:vector ETV
attr interpolationmode sample-hold
attr title "contention window, vector"
vector 261 Scenario.node[35].app[0] pingTxSeq:vector ETV
attr interpolationmode none
attr title "ping tx seq, vector"
vector 262 Scenario.node[35].app[1] pingTxSeq:vector ETV
attr interpolationmode none
attr title "ping tx seq, vector"
vector 263 Scenario.node[35].ipv4.ip packetDropNoRouteFound:vector(packetBytes) ETV
attr interpolationmode none
attr source packetDropReasonIsNoRouteFound(packetDropped)
attr title "packet drop: no route found, vector(packetBytes)"
vector 264 Scenario.node[36].wlan[0].radio radioMode:vector ETV
attr interpolationmode sample-hold
attr source radioModeChanged
attr title "Radio mode, vector"
vector 265 Scenario.node[36].wlan[0].radio radioChannel:vector ETV
attr interpolationmode sample-hold
attr source radioChannelChanged
attr title "Radio channel, vector"
vector 266 Scenario.node[36].wlan[0].radio receptionState:vector ETV
attr interpolationmode sample-hold
attr source receptionStateChanged
attr title "Radio reception state, vector"
vector 267 Scenario.node[36].wlan[0].mac.dcf.recoveryProcedure contentionWindowChanged:vector ETV
attr interpolationmode sample-hold
attr title "contention window, vector"
vector 268 Scenario.node[36].app[0] pingTxSeq:vector ETV
attr interpolationmode none
attr title "ping tx seq, vector"
vector 269 Scenario.node[36].app[1] pingTxSeq:vector ETV
attr interpolationmode none
attr title "ping tx seq, vector"
vector 270 Scenario.node[36].ipv4.ip packetDropNoRouteFound:vector(packetBytes) ETV
attr interpolationmode none
attr source packetDropReasonIsNoRouteFound(packetDropped)
attr title "packet drop: no route found, vector(packetBytes)"
vector 271 Scenario.node[37].wlan[0].radio radioMode:vector ETV
attr interpolationmode sample-hold
attr source radioModeChanged
attr title "Radio mode, vector"
vector 272 Scenario.node[37].wlan[0].radio radioChannel:vector ETV
attr interpolationmode sample-hold
attr source radioChannelChanged
attr title "Radio channel, vector"
vector 273 Scenario.node[37].wlan[0].radio receptionState:vector ETV
attr interpolationmode sample-hold
attr source receptionStateChanged
attr title "Radio reception state, vector"
vector 274 Scenario.node[37].wlan[0].mac.dcf.recoveryProcedure contentionWindowChanged:vector ETV
attr interpolationmode sample-hold
attr title "contention window, vector"
vector 275 Scenario.node[37].app[0] pingTxSeq:vector ETV
attr interpolationmode none
attr title "ping tx seq, vector"
vector 276 Scenario.node[37].app[1] pingTxSeq:vector ETV
attr interpolationmode none
attr title "ping tx seq, vector"
vector 277 Scenario.node[37].ipv4.ip packetDropNoRouteFound:vector(packetBytes) ETV
attr interpolationmode none
attr source packetDropReasonIsNoRouteFound(packetDropped)
attr title "packet drop: no route found, vector(packetBytes)"
vector 278 Scenario.node[38].wlan[0].radio radioMode:vector ETV
attr interpolationmode sample-hold
attr source radioModeChanged
attr title "Radio mode, vector"
vector 279 Scenario.node[38].wlan[0].radio radioChannel:vector ETV
attr interpolationmode sample-hold
attr source radioChannelChanged
attr title "Radio channel, vector"
vector 280 Scenario.node[38].wlan[0].radio receptionState:vector ETV
attr interpolationmode sample-hold
attr source receptionStateChanged
attr title "Radio reception state, vector"
vector 281 Scenario.node[38].wlan[0].mac.dcf.recoveryProcedure contentionWindowChanged:vector ETV
attr interpolationmode sample-hold
attr title "contention window, vector"
vector 282 Scenario.node[38].app[0] pingTxSeq:vector ETV
attr interpolationmode none
attr title "ping tx seq, vector"
vector 283 Scenario.node[38].app[1] pingTxSeq:vector ETV
attr interpolationmode none
attr title "ping tx seq, vector"
vector 284 Scenario.node[38].ipv4.ip packetDropNoRouteFound:vector(packetBytes) ETV
attr interpolationmode none
attr source packetDropReasonIsNoRouteFound(packetDropped)
attr title "packet drop: no route found, vector(packetBytes)"
vector 285 Scenario.node[39].wlan[0].radio radioMode:vector ETV
attr interpolationmode sample-hold
attr source radioModeChanged
attr title "Radio mode, vector"
vector 286 Scenario.node[39].wlan[0].radio radioChannel:vector ETV
attr interpolationmode sample-hold
attr source radioChannelChanged
attr title "Radio channel, vector"
vector 287 Scenario.node[39].wlan[0].radio receptionState:vector ETV
attr interpolationmode sample-hold
attr source receptionStateChanged
attr title "Radio reception state, vector"
vector 288 Scenario.node[39].wlan[0].mac.dcf.recoveryProcedure contentionWindowChanged:vector ETV
attr interpolationmode sample-hold
attr title "contention window, vector"
vector 289 Scenario.node[39].app[0] pingTxSeq:vector ETV
attr interpolationmode none
attr title "ping tx seq, vector"
vector 290 Scenario.node[39].app[1] pingTxSeq:vector ETV
attr interpolationmode none
attr title "ping tx seq, vector"
vector 291 Scenario.node[39].ipv4.ip packetDropNoRouteFound:vector(packetBytes) ETV
attr interpolationmode none
attr source packetDropReasonIsNoRouteFound(packetDropped)
attr title "packet drop: no route found, vector(packetBytes)"
vector 292 Scenario.node[40].wlan[0].radio radioMode:vector ETV
attr interpolationmode sample-hold
attr source radioModeChanged
attr title "Radio mode, vector"
vector 293 Scenario.node[40].wlan[0].radio radioChannel:vector ETV
attr interpolationmode sample-hold
attr source radioChannelChanged
attr title "Radio channel, vector"
vector 294 Scenario.node[40].wlan[0].radio receptionState:vector ETV
attr interpolationmode sample-hold
attr source receptionStateChanged
attr title "Radio reception state, vector"
vector 295 Scenario.node[40].wlan[0].mac.dcf.recoveryProcedure contentionWindowChanged:vector ETV
attr interpolationmode sample-hold
attr title "contention window, vector"
vector 296 Scenario.node[40].app[0] pingTxSeq:vector ETV
attr interpolationmode none
attr title "ping tx seq, vector"
vector 297 Scenario.node[40].app[1] pingTxSeq:vector ETV
attr interpolationmode none
attr title "ping tx seq, vector"
vector 298 Scenario.node[40].ipv4.ip packetDropNoRouteFound:vector(packetBytes) ETV
attr interpolationmode none
attr source packetDropReasonIsNoRouteFound(packetDropped)
attr title "packet drop: no route found, vector(packetBytes)"
vector 299 Scenario.node[41].wlan[0].radio radioMode:vector ETV
attr interpolationmode sample-hold
attr source radioModeChanged
attr title "Radio mode, vector"
vector 300 Scenario.node[41].wlan[0].radio radioChannel:vector ETV
attr interpolationmode sample-hold
attr source radioChannelChanged
attr title "Radio channel, vector"
vector 301 Scenario.node[41].wlan[0].radio receptionState:vector ETV
attr interpolationmode sample-hold
attr source receptionStateChanged
attr title "Radio reception state, vector"
vector 302 Scenario.node[41].wlan[0].mac.dcf.recoveryProcedure contentionWindowChanged:vector ETV
attr interpolationmode sample-hold
attr title "contention window, vector"
vector 303 Scenario.node[41].app[0] pingTxSeq:vector ETV
attr interpolationmode none
attr title "ping tx seq, vector"
vector 304 Scenario.node[41].app[1] pingTxSeq:vector ETV
attr interpolationmode none
attr title "ping tx seq, vector"
vector 305 Scenario.node[41].ipv4.ip packetDropNoRouteFound:vector(packetBytes) ETV
attr interpolationmode none
attr source packetDropReasonIsNoRouteFound(packetDropped)
attr title "packet drop: no route found, vector(packetBytes)"
85	53743 15 25029 25029 11 11 1 31 31 31 961
83	53758 14 25029 25029 11 11 1 0 0 0 0
82	53772 42 25029 25029 11 11 3 0 2 2 4
84	53814 14 25029 25029 11 11 1 1 1 1 1
88	53828 16272 25057 329567 11 42.92 800 1546 1546 1236800 1912092800
86	70100 7626 25043 329513 11 42.92 400 0 399 79800 21253400
87	77726 7626 25044 329514 11 42.92 400 0 399 79800 21253400
vector 306 Scenario.node[42].wlan[0].radio radioMode:vector ETV
attr interpolationmode sample-hold
attr source radioModeChanged
attr title "Radio mode, vector"
vector 307 Scenario.node[42].wlan[0].radio radioChannel:vector ETV
attr interpolationmode sample-hold
attr source radioChannelChanged
attr title "Radio channel, vector"
vector 308 Scenario.node[42].wlan[0].radio receptionState:vector ETV
attr interpolationmode sample-hold
attr source receptionStateChanged
attr title "Radio reception state, vector"
vector 309 Scenario.node[42].wlan[0].mac.dcf.recoveryProcedure contentionWindowChanged:vector ETV
attr interpolationmode sample-hold
attr title "contention window, vector"
vector 310 Scenario.node[42].app[0] pingTxSeq:vector ETV
attr interpolationmode none
attr title "ping tx seq, vector"
vector 311 Scenario.node[42].app[1] pingTxSeq:vector ETV
attr interpolationmode none
attr title "ping tx seq, vector"
vector 312 Scenario.node[42].ipv4.ip packetDropNoRouteFound:vector(packetBytes) ETV
attr interpolationmode none
attr source packetDropReasonIsNoRouteFound(packetDropped)
attr title "packet drop: no route found, vector(packetBytes)"
vector 313 Scenario.node[43].wlan[0].radio radioMode:vector ETV
attr interpolationmode sample-hold
attr source radioModeChanged
attr title "Radio mode, vector"
vector 314 Scenario.node[43].wlan[0].radio radioChannel:vector ETV
attr interpolationmode sample-hold
attr source radioChannelChanged
attr title "Radio channel, vector"
vector 315 Scenario.node[43].wlan[0].radio receptionState:vector ETV
attr interpolationmode sample-hold
attr source receptionStateChanged
attr title "Radio reception state, vector"
vector 316 Scenario.node[43].wlan[0].mac.dcf.recoveryProcedure contentionWindowChanged:vector ETV
attr interpolationmode sample-hold
attr title "contention window, vector"
vector 317 Scenario.node[43].app[0] pingTxSeq:vector ETV
attr interpolationmode none
attr title "ping tx seq, vector"
vector 318 Scenario.node[43].app[1] pingTxSeq:vector ETV
attr interpolationmode none
attr title "ping tx seq, vector"
vector 319 Scenario.node[43].ipv4.ip packetDropNoRouteFound:vector(packetBytes) ETV
attr interpolationmode none
attr source packetDropReasonIsNoRouteFound(packetDropped)
attr title "packet drop: no route found, vector(packetBytes)"
vector 320 Scenario.node[44].wlan[0].radio radioMode:vector ETV
attr interpolationmode sample-hold
attr source radioModeChanged
attr title "Radio mode, vector"
vector 321 Scenario.node[44].wlan[0].radio radioChannel:vector ETV
attr interpolationmode sample-hold
attr source radioChannelChanged
attr title "Radio channel, vector"
vector 322 Scenario.node[44].wlan[0].radio receptionState:vector ETV
attr interpolationmode sample-hold
attr source receptionStateChanged
attr title "Radio reception state, vector"
vector 323 Scenario.node[44].wlan[0].mac.dcf.recoveryProcedure contentionWindowChanged:vector ETV
attr interpolationmode sample-hold
attr title "contention window, vector"
vector 324 Scenario.node[44].app[0] pingTxSeq:vector ETV
attr interpolationmode none
attr title "ping tx seq, vector"
vector 325 Scenario.node[44].app[1] pingTxSeq:vector ETV
attr interpolationmode none
attr title "ping tx seq, vector"
vector 326 Scenario.node[44].ipv4.ip packetDropNoRouteFound:vector(packetBytes) ETV
attr interpolationmode none
attr source packetDropReasonIsNoRouteFound(packetDropped)
attr title "packet drop: no route found, vector(packetBytes)"
vector 327 Scenario.node[45].wlan[0].radio radioMode:vector ETV
attr interpolationmode sample-hold
attr source radioModeChanged
attr title "Radio mode, vector"
vector 328 Scenario.node[45].wlan[0].radio radioChannel:vector ETV
attr interpolationmode sample-hold
attr source radioChannelChanged
attr title "Radio channel, vector"
vector 329 Scenario.node[45].wlan[0].radio receptionState:vector ETV
attr interpolationmode sample-hold
attr source receptionStateChanged
attr title "Radio reception state, vector"
vector 330 Scenario.node[45].wlan[0].mac.dcf.recoveryProcedure contentionWindowChanged:vector ETV
attr interpolationmode sample-hold
attr title "contention window, vector"
vector 331 Scenario.node[45].app[0] pingTxSeq:vector ETV
attr interpolationmode none
attr title "ping tx seq, vector"
vector 332 Scenario.node[45].app[1] pingTxSeq:vector ETV
attr interpolationmode none
attr title "ping tx seq, vector"
vector 333 Scenario.node[45].ipv4.ip packetDropNoRouteFound:vector(packetBytes) ETV
attr interpolationmode none
attr source packetDropReasonIsNoRouteFound(packetDropped)
attr title "packet drop: no route found, vector(packetBytes)"
vector 334 Scenario.node[46].wlan[0].radio radioMode:vector ETV
attr interpolationmode sample-hold
attr source radioModeChanged
attr title "Radio mode, vector"
vector 335 Scenario.node[46].wlan[0].radio radioChannel:vector ETV
attr interpolationmode sample-hold
attr source radioChannelChanged
attr title "Radio channel, vector"
vector 336 Scenario.node[46].wlan[0].radio receptionState:vector ETV
attr interpolationmode sample-hold
attr source receptionStateChanged
attr title "Radio reception state, vector"
vector 337 Scenario.node[46].wlan[0].mac.dcf.recoveryProcedure contentionWindowChanged:vector ETV
attr interpolationmode sample-hold
attr title "contention window, vector"
vector 338 Scenario.node[46].app[0] pingTxSeq:vector ETV
attr interpolationmode none
attr title "ping tx seq, vector"
vector 339 Scenario.node[46].app[1] pingTxSeq:vector ETV
attr interpolationmode none
attr title "ping tx seq, vector"
vector 340 Scenario.node[46].ipv4.ip packetDropNoRouteFound:vector(packetBytes) ETV
attr interpolationmode none
attr source packetDropReasonIsNoRouteFound(packetDropped)
attr title "packet drop: no route found, vector(packetBytes)"
vector 341 Scenario.node[47].wlan[0].radio radioMode:vector ETV
attr interpolationmode sample-hold
attr source radioModeChanged
attr title "Radio mode, vector"
vector 342 Scenario.node[47].wlan[0].radio radioChannel:vector ETV
attr interpolationmode sample-hold
attr source radioChannelChanged
attr title "Radio channel, vector"
vector 343 Scenario.node[47].wlan[0].radio receptionState:vector ETV
attr interpolationmode sample-hold
attr source receptionStateChanged
attr title "Radio reception state, vector"
vector 344 Scenario.node[47].wlan[0].mac.dcf.recoveryProcedure contentionWindowChanged:vector ETV
attr interpolationmode sample-hold
attr title "contention window, vector"
vector 345 Scenario.node[48].wlan[0].radio radioMode:vector ETV
attr interpolationmode sample-hold
attr source radioModeChanged
attr title "Radio mode, vector"
vector 346 Scenario.node[48].wlan[0].radio radioChannel:vector ETV
attr interpolationmode sample-hold
attr source radioChannelChanged
attr title "Radio channel, vector"
vector 347 Scenario.node[48].wlan[0].radio receptionState:vector ETV
attr interpolationmode sample-hold
attr source receptionStateChanged
attr title "Radio reception state, vector"
vector 348 Scenario.node[48].wlan[0].mac.dcf.recoveryProcedure contentionWindowChanged:vector ETV
attr interpolationmode sample-hold
attr title "contention window, vector"
vector 349 Scenario.node[47].app[0] pingTxSeq:vector ETV
attr interpolationmode none
attr title "ping tx seq, vector"
vector 350 Scenario.node[47].app[1] pingTxSeq:vector ETV
attr interpolationmode none
attr title "ping tx seq, vector"
vector 351 Scenario.node[48].app[0] pingTxSeq:vector ETV
attr interpolationmode none
attr title "ping tx seq, vector"
vector 352 Scenario.node[48].app[1] pingTxSeq:vector ETV
attr interpolationmode none
attr title "ping tx seq, vector"
vector 353 Scenario.node[47].ipv4.ip packetDropNoRouteFound:vector(packetBytes) ETV
attr interpolationmode none
attr source packetDropReasonIsNoRouteFound(packetDropped)
attr title "packet drop: no route found, vector(packetBytes)"
vector 354 Scenario.node[48].ipv4.ip packetDropNoRouteFound:vector(packetBytes) ETV
attr interpolationmode none
attr source packetDropReasonIsNoRouteFound(packetDropped)
attr title "packet drop: no route found, vector(packetBytes)"
vector 355 Scenario.node[49].wlan[0].radio radioMode:vector ETV
attr interpolationmode sample-hold
attr source radioModeChanged
attr title "Radio mode, vector"
vector 356 Scenario.node[49].wlan[0].radio radioChannel:vector ETV
attr interpolationmode sample-hold
attr source radioChannelChanged
attr title "Radio channel, vector"
vector 357 Scenario.node[49].wlan[0].radio receptionState:vector ETV
attr interpolationmode sample-hold
attr source receptionStateChanged
attr title "Radio reception state, vector"
vector 358 Scenario.node[49].wlan[0].mac.dcf.recoveryProcedure contentionWindowChanged:vector ETV
attr interpolationmode sample-hold
attr title "contention window, vector"
vector 359 Scenario.node[49].app[0] pingTxSeq:vector ETV
attr interpolationmode none
attr title "ping tx seq, vector"
vector 360 Scenario.node[49].app[1] pingTxSeq:vector ETV
attr interpolationmode none
attr title "ping tx seq, vector"
vector 361 Scenario.node[49].ipv4.ip packetDropNoRouteFound:vector(packetBytes) ETV
attr interpolationmode none
attr source packetDropReasonIsNoRouteFound(packetDropped)
attr title "packet drop: no route found, vector(packetBytes)"
vector 362 Scenario.node[50].wlan[0].radio radioMode:vector ETV
attr interpolationmode sample-hold
attr source radioModeChanged
attr title "Radio mode, vector"
vector 363 Scenario.node[50].wlan[0].radio radioChannel:vector ETV
attr interpolationmode sample-hold
attr source radioChannelChanged
attr title "Radio channel, vector"
vector 364 Scenario.node[50].wlan[0].radio receptionState:vector ETV
attr interpolationmode sample-hold
attr source receptionStateChanged
attr title "Radio reception state, vector"
vector 365 Scenario.node[50].wlan[0].mac.dcf.recoveryProcedure contentionWindowChanged:vector ETV
attr interpolationmode sample-hold
attr title "contention window, vector"
vector 366 Scenario.node[50].app[0] pingTxSeq:vector ETV
attr interpolationmode none
attr title "ping tx seq, vector"
vector 367 Scenario.node[50].app[1] pingTxSeq:vector ETV
attr interpolationmode none
attr title "ping tx seq, vector"
vector 368 Scenario.node[50].ipv4.ip packetDropNoRouteFound:vector(packetBytes) ETV
attr interpolationmode none
attr source packetDropReasonIsNoRouteFound(packetDropped)
attr title "packet drop: no route found, vector(packetBytes)"
vector 369 Scenario.node[51].wlan[0].radio radioMode:vector ETV
attr interpolationmode sample-hold
attr source radioModeChanged
attr title "Radio mode, vector"
vector 370 Scenario.node[51].wlan[0].radio radioChannel:vector ETV
attr interpolationmode sample-hold
attr source radioChannelChanged
attr title "Radio channel, vector"
vector 371 Scenario.node[51].wlan[0].radio receptionState:vector ETV
attr interpolationmode sample-hold
attr source receptionStateChanged
attr title "Radio reception state, vector"
vector 372 Scenario.node[51].wlan[0].mac.dcf.recoveryProcedure contentionWindowChanged:vector ETV
attr interpolationmode sample-hold
attr title "contention window, vector"
vector 373 Scenario.node[51].app[0] pingTxSeq:vector ETV
attr interpolationmode none
attr title "ping tx seq, vector"
vector 374 Scenario.node[51].app[1] pingTxSeq:vector ETV
attr interpolationmode none
attr title "ping tx seq, vector"
vector 375 Scenario.node[51].ipv4.ip packetDropNoRouteFound:vector(packetBytes) ETV
attr interpolationmode none
attr source packetDropReasonIsNoRouteFound(packetDropped)
attr title "packet drop: no route found, vector(packetBytes)"
vector 376 Scenario.node[52].wlan[0].radio radioMode:vector ETV
attr interpolationmode sample-hold
attr source radioModeChanged
attr title "Radio mode, vector"
vector 377 Scenario.node[52].wlan[0].radio radioChannel:vector ETV
attr interpolationmode sample-hold
attr source radioChannelChanged
attr title "Radio channel, vector"
vector 378 Scenario.node[52].wlan[0].radio receptionState:vector ETV
attr interpolationmode sample-hold
attr source receptionStateChanged
attr title "Radio reception state, vector"
vector 379 Scenario.node[52].wlan[0].mac.dcf.recoveryProcedure contentionWindowChanged:vector ETV
attr interpolationmode sample-hold
attr title "contention window, vector"
vector 380 Scenario.node[52].app[0] pingTxSeq:vector ETV
attr interpolationmode none
attr title "ping tx seq, vector"
vector 381 Scenario.node[52].app[1] pingTxSeq:vector ETV
attr interpolationmode none
attr title "ping tx seq, vector"
vector 382 Scenario.node[52].ipv4.ip packetDropNoRouteFound:vector(packetBytes) ETV
attr interpolationmode none
attr source packetDropReasonIsNoRouteFound(packetDropped)
attr title "packet drop: no route found, vector(packetBytes)"
vector 383 Scenario.node[53].wlan[0].radio radioMode:vector ETV
attr interpolationmode sample-hold
attr source radioModeChanged
attr title "Radio mode, vector"
vector 384 Scenario.node[53].wlan[0].radio radioChannel:vector ETV
attr interpolationmode sample-hold
attr source radioChannelChanged
attr title "Radio channel, vector"
vector 385 Scenario.node[53].wlan[0].radio receptionState:vector ETV
attr interpolationmode sample-hold
attr source receptionStateChanged
attr title "Radio reception state, vector"
vector 386 Scenario.node[53].wlan[0].mac.dcf.recoveryProcedure contentionWindowChanged:vector ETV
attr interpolationmode sample-hold
attr title "contention window, vector"
vector 387 Scenario.node[53].app[0] pingTxSeq:vector ETV
attr interpolationmode none
attr title "ping tx seq, vector"
vector 388 Scenario.node[53].app[1] pingTxSeq:vector ETV
attr interpolationmode none
attr title "ping tx seq, vector"
vector 389 Scenario.node[53].ipv4.ip packetDropNoRouteFound:vector(packetBytes) ETV
attr interpolationmode none
attr source packetDropReasonIsNoRouteFound(packetDropped)
attr title "packet drop: no route found, vector(packetBytes)"
vector 390 Scenario.node[54].wlan[0].radio radioMode:vector ETV
attr interpolationmode sample-hold
attr source radioModeChanged
attr title "Radio mode, vector"
vector 391 Scenario.node[54].wlan[0].radio radioChannel:vector ETV
attr interpolationmode sample-hold
attr source radioChannelChanged
attr title "Radio channel, vector"
vector 392 Scenario.node[54].wlan[0].radio receptionState:vector ETV
attr interpolationmode sample-hold
attr source receptionStateChanged
attr title "Radio reception state, vector"
vector 393 Scenario.node[54].wlan[0].mac.dcf.recoveryProcedure contentionWindowChanged:vector ETV
attr interpolationmode sample-hold
attr title "contention window, vector"
vector 394 Scenario.node[54].app[0] pingTxSeq:vector ETV
attr interpolationmode none
attr title "ping tx seq, vector"
vector 395 Scenario.node[54].app[1] pingTxSeq:vector ETV
attr interpolationmode none
attr title "ping tx seq, vector"
vector 396 Scenario.node[54].ipv4.ip packetDropNoRouteFound:vector(packetBytes) ETV
attr interpolationmode none
attr source packetDropReasonIsNoRouteFound(packetDropped)
attr title "packet drop: no route found, vector(packetBytes)"
vector 397 Scenario.node[55].wlan[0].radio radioMode:vector ETV
attr interpolationmode sample-hold
attr source radioModeChanged
attr title "Radio mode, vector"
vector 398 Scenario.node[55].wlan[0].radio radioChannel:vector ETV
attr interpolationmode sample-hold
attr source radioChannelChanged
attr title "Radio channel, vector"
vector 399 Scenario.node[55].wlan[0].radio receptionState:vector ETV
attr interpolationmode sample-hold
attr source receptionStateChanged
attr title "Radio reception state, vector"
vector 400 Scenario.node[55].wlan[0].mac.dcf.recoveryProcedure contentionWindowChanged:vector ETV
attr interpolationmode sample-hold
attr title "contention window, vector"
vector 401 Scenario.node[55].app[0] pingTxSeq:vector ETV
attr interpolationmode none
attr title "ping tx seq, vector"
vector 402 Scenario.node[55].app[1] pingTxSeq:vector ETV
attr interpolationmode none
attr title "ping tx seq, vector"
vector 403 Scenario.node[55].ipv4.ip packetDropNoRouteFound:vector(packetBytes) ETV
attr interpolationmode none
attr source packetDropReasonIsNoRouteFound(packetDropped)
attr title "packet drop: no route found, vector(packetBytes)"
vector 404 Scenario.node[56].wlan[0].radio radioMode:vector ETV
attr interpolationmode sample-hold
attr source radioModeChanged
attr title "Radio mode, vector"
vector 405 Scenario.node[56].wlan[0].radio radioChannel:vector ETV
attr interpolationmode sample-hold
attr source radioChannelChanged
attr title "Radio channel, vector"
vector 406 Scenario.node[56].wlan[0].radio receptionState:vector ETV
attr interpolationmode sample-hold
attr source receptionStateChanged
attr title "Radio reception state, vector"
vector 407 Scenario.node[56].wlan[0].mac.dcf.recoveryProcedure contentionWindowChanged:vector ETV
attr interpolationmode sample-hold
attr title "contention window, vector"
vector 408 Scenario.node[56].app[0] pingTxSeq:vector ETV
attr interpolationmode none
attr title "ping tx seq, vector"
vector 409 Scenario.node[56].app[1] pingTxSeq:vector ETV
attr interpolationmode none
attr title "ping tx seq, vector"
vector 410 Scenario.node[56].ipv4.ip packetDropNoRouteFound:vector(packetBytes) ETV
attr interpolationmode none
attr source packetDropReasonIsNoRouteFound(packetDropped)
attr title "packet drop: no route found, vector(packetBytes)"
vector 411 Scenario.node[57].wlan[0].radio radioMode:vector ETV
attr interpolationmode sample-hold
attr source radioModeChanged
attr title "Radio mode, vector"
vector 412 Scenario.node[57].wlan[0].radio radioChannel:vector ETV
attr interpolationmode sample-hold
attr source radioChannelChanged
attr title "Radio channel, vector"
vector 413 Scenario.node[57].wlan[0].radio receptionState:vector ETV
attr interpolationmode sample-hold
attr source receptionStateChanged
attr title "Radio reception state, vector"
vector 414 Scenario.node[57].wlan[0].mac.dcf.recoveryProcedure contentionWindowChanged:vector ETV
attr interpolationmode sample-hold
attr title "contention window, vector"
vector 415 Scenario.node[57].app[0] pingTxSeq:vector ETV
attr interpolationmode none
attr title "ping tx seq, vector"
vector 416 Scenario.node[57].app[1] pingTxSeq:vector ETV
attr interpolationmode none
attr title "ping tx seq, vector"
vector 417 Scenario.node[57].ipv4.ip packetDropNoRouteFound:vector(packetBytes) ETV
attr interpolationmode none
attr source packetDropReasonIsNoRouteFound(packetDropped)
attr title "packet drop: no route found, vector(packetBytes)"
vector 418 Scenario.node[58].wlan[0].radio radioMode:vector ETV
attr interpolationmode sample-hold
attr source radioModeChanged
attr title "Radio mode, vector"
vector 419 Scenario.node[58].wlan[0].radio radioChannel:vector ETV
attr interpolationmode sample-hold
attr source radioChannelChanged
attr title "Radio channel, vector"
vector 420 Scenario.node[58].wlan[0].radio receptionState:vector ETV
attr interpolationmode sample-hold
attr source receptionStateChanged
attr title "Radio reception state, vector"
vector 421 Scenario.node[58].wlan[0].mac.dcf.recoveryProcedure contentionWindowChanged:vector ETV
attr interpolationmode sample-hold
attr title "contention window, vector"
vector 422 Scenario.node[58].app[0] pingTxSeq:vector ETV
attr interpolationmode none
attr title "ping tx seq, vector"
vector 423 Scenario.node[58].app[1] pingTxSeq:vector ETV
attr interpolationmode none
attr title "ping tx seq, vector"
vector 424 Scenario.node[58].ipv4.ip packetDropNoRouteFound:vector(packetBytes) ETV
attr interpolationmode none
attr source packetDropReasonIsNoRouteFound(packetDropped)
attr title "packet drop: no route found, vector(packetBytes)"
0	104902 24 0 0 0 0 3 0 2 2 4
1	104926 8 0 0 0 0 1 0 0 0 0
2	104934 24 0 0 0 0 3 0 2 2 4
3	104958 8 0 0 0 0 1 0 0 0 0
4	104966 8 0 0 0 0 1 1 1 1 1
5	104974 8 0 0 0 0 1 1 1 1 1
6	104982 9 0 0 0 0 1 31 31 31 961
7	104991 9 0 0 0 0 1 31 31 31 961
8	105000 116914 145 125106 1 25.997 7145 0 2 10715 17859
9	221914 10 145 145 1 1 1 0 0 0 0
10	221924 124037 145 125106 1 25.997 7143 0 1 3572 3572
11	345961 12 145 145 1 1 1 31 31 31 961
12	345973 13944 146 625135 1 59.88 737 0 736 271216 133167056
13	359917 13944 147 625136 1 59.88 737 0 736 271216 133167056
14	373861 29582 149 625215 1 59.88 1474 1546 1546 2278804 3523030984
15	403443 57284 627 625195 2 59.88 2895 0 2894 4189065 8083499095
16	460727 33 628 628 2 2 3 0 2 2 4
17	460760 11 628 628 2 2 1 0 0 0 0
18	460771 11 628 628 2 2 1 1 1 1 1
19	460782 12 628 628 2 2 1 31 31 31 961
20	460794 13739 631 624329 2 59.84 724 0 723 261726 126239174
21	474533 13739 632 624330 2 59.84 724 0 723 261726 126239174
22	488272 105208 633 625280 2 59.88 5790 84 84 486360 40854240
23	593480 105208 633 625280 2 59.88 5790 84 84 486360 40854240
24	698688 29146 635 624403 2 59.84 1448 1546 1546 2238608 3460887968
25	727834 57284 644 625282 2 59.88 2895 0 2894 4189065 8083499095
26	785118 42680 1994 625545 3 59.896 2261 0 2 3389 5649
27	827798 12 1994 1994 3 3 1 0 0 0 0
28	827810 42656 1994 625545 3 59.896 2259 0 1 1130 1130
29	870466 13 1994 1994 3 3 1 31 31 31 961
30	870479 13542 1998 625137 3 59.88 712 0 711 253116 120061356
31	884021 13542 1999 625138 3 59.88 712 0 711 253116 120061356
32	897563 28728 2004 625217 3 59.88 1424 1546 1546 2201504 3403525184
33	926291 36 3701 3701 4 4 3 0 2 2 4
34	926327 12 3701 3701 4 4 1 0 0 0 0
35	926339 12 3701 3701 4 4 1 1 1 1 1
36	926351 13 3701 3701 4 4 1 31 31 31 961
37	926364 13325 3705 624331 4 59.84 699 0 698 243951 113599849
38	939689 13325 3706 624332 4 59.84 699 0 698 243951 113599849
39	953014 28268 3711 624405 4 59.84 1398 1546 1546 2161308 3341382168
40	981282 69654 5739 625517 5 59.894 3689 0 2 5531 9219
41	1050936 12 5739 5739 5 5 1 0 0 0 0
42	1050948 69630 5739 625517 5 59.894 3687 0 1 1844 1844
43	1120578 13 5739 5739 5 5 1 31 31 31 961
44	1120591 13124 5745 625139 5 59.88 687 0 686 235641 107845031
45	1133715 13124 5746 625140 5 59.88 687 0 686 235641 107845031
46	1146839 27842 5753 625219 5 59.88 1374 1546 1546 2124204 3284019384
47	1174681 36 8118 8118 6 6 3 0 2 2 4
48	1174717 12 8118 8118 6 6 1 0 0 0 0
49	1174729 12 8118 8118 6 6 1 1 1 1 1
50	1174741 13 8118 8118 6 6 1 31 31 31 961
51	1174754 12907 8124 624333 6 59.84 674 0 673 226801 101833649
52	1187661 12907 8125 624334 6 59.84 674 0 673 226801 101833649
53	1200568 27382 8132 624407 6 59.84 1348 1546 1546 2084008 3221876368
54	1227950 39 10827 10827 7 7 3 0 2 2 4
55	1227989 13 10827 10827 7 7 1 0 0 0 0
56	1228002 13 10827 10827 7 7 1 1 1 1 1
57	1228015 14 10827 10827 7 7 1 31 31 31 961
58	1228029 12703 10836 625141 7 59.88 662 0 661 218791 96486831
59	1240732 12703 10837 625142 7 59.88 662 0 661 218791 96486831
60	1253435 26950 10846 625221 7 59.88 1324 1546 1546 2046904 3164513584
61	1280385 162423 13876 273473 8 38.996 8859 0 2 13286 22144
62	1442808 13 13876 13876 8 8 1 0 0 0 0
63	1442821 162397 13876 273473 8 38.996 8857 0 1 4429 4429
64	1605218 14 13876 13876 8 8 1 31 31 31 961
65	1605232 12473 13886 624335 8 59.84 649 0 648 210276 90909324
66	1617705 12473 13887 624336 8 59.84 649 0 648 210276 90909324
67	1630178 26464 13896 624409 8 59.84 1298 1546 1546 2006708 3102370568
68	1656642 39 17256 17256 9 9 3 0 2 2 4
69	1656681 13 17256 17256 9 9 1 0 0 0 0
70	1656694 13 17256 17256 9 9 1 1 1 1 1
71	1656707 14 17256 17256 9 9 1 31 31 31 961
72	1656721 12260 17268 625143 9 59.88 637 0 636 202566 85955506
73	1668981 12260 17269 625144 9 59.88 637 0 636 202566 85955506
74	1681241 26014 17280 625223 9 59.88 1274 1546 1546 1969604 3045007784
75	1707255 42 20977 20977 10 10 3 0 2 2 4
76	1707297 14 20977 20977 10 10 1 0 0 0 0
77	1707311 14 20977 20977 10 10 1 1 1 1 1
78	1707325 15 20977 20977 10 10 1 31 31 31 961
79	1707340 12030 20989 624337 10 59.84 624 0 623 194376 80795624
80	1719370 12030 20990 624338 10 59.84 624 0 623 194376 80795624
81	1731400 25528 21001 624411 10 59.84 1248 1546 1546 1929408 2982864768
89	1756928 42 29422 29422 12 12 3 0 2 2 4
90	1756970 14 29422 29422 12 12 1 0 0 0 0
91	1756984 14 29422 29422 12 12 1 1 1 1 1
92	1756998 15 29422 29422 12 12 1 31 31 31 961
93	1757013 11562 29436 624339 12 59.84 599 0 598 179101 71461299
94	1768575 11562 29437 624340 12 59.84 599 0 598 179101 71461299
95	1780137 24542 29450 624413 12 59.84 1198 1546 1546 1852108 2863358968
96	1804679 42 34146 34146 13 13 3 0 2 2 4
97	1804721 14 34146 34146 13 13 1 0 0 0 0
98	1804735 14 34146 34146 13 13 1 1 1 1 1
99	1804749 15 34146 34146 13 13 1 31 31 31 961
100	1804764 11924 34162 625145 13 59.88 587 0 586 171991 67248481
101	1816688 11924 34163 625146 13 59.88 587 0 586 171991 67248481
102	1828612 25242 34178 625225 13 59.88 1174 1546 1546 1815004 2805996184
103	1853854 45 39210 39210 14 14 3 0 2 2 4
104	1853899 15 39210 39210 14 14 1 0 0 0 0
105	1853914 15 39210 39210 14 14 1 1 1 1 1
106	1853929 16 39210 39210 14 14 1 31 31 31 961
107	1853945 11668 39227 624341 14 59.84 574 0 573 164451 62875099
108	1865613 11668 39228 624342 14 59.84 574 0 573 164451 62875099
109	1877281 24704 39243 624415 14 59.84 1148 1546 1546 1774808 2743853168
110	1901985 45 44604 44604 15 15 3 0 2 2 4
111	1902030 15 44604 44604 15 15 1 0 0 0 0
112	1902045 15 44604 44604 15 15 1 1 1 1 1
113	1902060 16 44604 44604 15 15 1 31 31 31 961
114	1902076 11431 44624 625147 15 59.88 562 0 561 157641 59010281
115	1913507 11431 44625 625148 15 59.88 562 0 561 157641 59010281
116	1924938 24206 44642 625227 15 59.88 1124 1546 1546 1737704 2686490384
117	1949144 45 50339 50339 16 16 3 0 2 2 4
118	1949189 15 50339 50339 16 16 1 0 0 0 0
119	1949204 15 50339 50339 16 16 1 1 1 1 1
120	1949219 16 50339 50339 16 16 1 31 31 31 961
121	1949235 11175 50359 624343 16 59.84 549 0 548 150426 55005774
122	1960410 11175 50360 624344 16 59.84 549 0 548 150426 55005774
123	1971585 23668 50377 624417 16 59.84 1098 1546 1546 1697508 2624347368
124	1995253 213931 62474 625527 18 59.895 10831 0 2 16244 27074
125	2209184 15 62474 62474 18 18 1 0 0 0 0
[...]
317	4448661 4013 345535 624371 44 59.84 199 0 198 19701 2607099
318	4452674 4013 345536 624372 44 59.84 199 0 198 19701 2607099
319	4456687 8644 345581 624445 44 59.84 398 1546 1546 615308 951266168
320	4465331 48 360613 360613 45 45 3 0 2 2 4
321	4465379 16 360613 360613 45 45 1 0 0 0 0
322	4465395 16 360613 360613 45 45 1 1 1 1 1
323	4465411 17 360613 360613 45 45 1 31 31 31 961
324	4465428 3763 360667 625177 45 59.88 187 0 186 17391 2162281
325	4469191 3763 360668 625178 45 59.88 187 0 186 17391 2162281
326	4472954 8120 360713 625257 45 59.88 374 1546 1546 578204 893903384
327	4481074 79010 376086 625521 46 59.895 3973 0 2 5957 9929
328	4560084 16 376086 376086 46 46 1 0 0 0 0
329	4560100 78978 376086 625521 46 59.895 3971 0 1 1986 1986
330	4639078 17 376086 376086 46 46 1 31 31 31 961
331	4639095 3495 376140 624373 46 59.84 174 0 173 15051 1740899
332	4642590 3495 376141 624374 46 59.84 174 0 173 15051 1740899
333	4646085 7558 376188 624447 46 59.84 348 1546 1546 538008 831760368
334	4653643 48 391888 391888 47 47 3 0 2 2 4
335	4653691 16 391888 391888 47 47 1 0 0 0 0
336	4653707 16 391888 391888 47 47 1 1 1 1 1
337	4653723 17 391888 391888 47 47 1 31 31 31 961
338	4653740 3245 391948 625179 47 59.88 162 0 161 13041 1404081
339	4656985 3245 391949 625180 47 59.88 162 0 161 13041 1404081
340	4660230 7034 391996 625259 47 59.88 324 1546 1546 500904 774397584
341	4667264 48 424164 424164 49 49 3 0 2 2 4
342	4667312 16 424164 424164 49 49 1 0 0 0 0
343	4667328 16 424164 424164 49 49 1 1 1 1 1
344	4667344 17 424164 424164 49 49 1 31 31 31 961
345	4667361 11388 424164 458055 49 50.995 573 0 2 857 1429
346	4678749 16 424164 424164 49 49 1 0 0 0 0
347	4678765 11356 424164 458055 49 50.995 571 0 1 286 286
348	4690121 17 424164 424164 49 49 1 31 31 31 961
349	4690138 2727 424225 625181 49 59.88 137 0 136 9316 847756
350	4692865 2727 424226 625182 49 59.88 137 0 136 9316 847756
351	4695592 2727 424227 625183 49 59.88 137 0 136 9316 847756
352	4698319 2727 424228 625184 49 59.88 137 0 136 9316 847756
353	4701046 5948 424277 625261 49 59.88 274 1546 1546 423604 654891784
354	4706994 5948 424281 625263 49 59.88 274 1546 1546 423604 654891784
355	4712942 48 440979 440979 50 50 3 0 2 2 4
356	4712990 16 440979 440979 50 50 1 0 0 0 0
357	4713006 16 440979 440979 50 50 1 1 1 1 1
358	4713022 17 440979 440979 50 50 1 31 31 31 961
359	4713039 2459 441041 624375 50 59.84 124 0 123 7626 627874
360	4715498 2459 441042 624376 50 59.84 124 0 123 7626 627874
361	4717957 5386 441091 624449 50 59.84 248 1546 1546 383408 592748768
362	4723343 48 458121 458121 51 51 3 0 2 2 4
363	4723391 16 458121 458121 51 51 1 0 0 0 0
364	4723407 16 458121 458121 51 51 1 1 1 1 1
365	4723423 17 458121 458121 51 51 1 31 31 31 961
366	4723440 2209 458187 625185 51 59.88 112 0 111 6216 462056
367	4725649 2209 458188 625186 51 59.88 112 0 111 6216 462056
368	4727858 4862 458241 625265 51 59.88 224 1546 1546 346304 535385984
369	4732720 48 475610 475610 52 52 3 0 2 2 4
370	4732768 16 475610 475610 52 52 1 0 0 0 0
371	4732784 16 475610 475610 52 52 1 1 1 1 1
372	4732800 17 475610 475610 52 52 1 31 31 31 961
373	4732817 1942 475672 624377 52 59.84 99 0 98 4851 318549
374	4734759 1942 475673 624378 52 59.84 99 0 98 4851 318549
375	4736701 4300 475724 624451 52 59.84 198 1546 1546 306108 473242968
376	4741001 48 493428 493428 53 53 3 0 2 2 4
377	4741049 16 493428 493428 53 53 1 0 0 0 0
378	4741065 16 493428 493428 53 53 1 1 1 1 1
379	4741081 17 493428 493428 53 53 1 31 31 31 961
380	4741098 1704 493492 625187 53 59.88 87 0 86 3741 215731
381	4742802 1704 493493 625188 53 59.88 87 0 86 3741 215731
382	4744506 3776 493548 625267 53 59.88 174 1546 1546 269004 415880184
383	4748282 33544 511585 625501 54 59.894 1687 0 2 2528 4214
384	4781826 16 511585 511585 54 54 1 0 0 0 0
385	4781842 33512 511585 625501 54 59.894 1685 0 1 843 843
386	4815354 17 511585 511585 54 54 1 31 31 31 961
387	4815371 1449 511653 624379 54 59.84 74 0 73 2701 132349
388	4816820 1449 511654 624380 54 59.84 74 0 73 2701 132349
389	4818269 3214 511707 624453 54 59.84 148 1546 1546 228808 353737168
390	4821483 48 530071 530071 55 55 3 0 2 2 4
391	4821531 16 530071 530071 55 55 1 0 0 0 0
392	4821547 16 530071 530071 55 55 1 1 1 1 1
393	4821563 17 530071 530071 55 55 1 31 31 31 961
394	4821580 1211 530141 625189 55 59.88 62 0 61 1891 77531
395	4822791 1211 530142 625190 55 59.88 62 0 61 1891 77531
396	4824002 2690 530199 625269 55 59.88 124 1546 1546 191704 296374384
397	4826692 48 548899 548899 56 56 3 0 2 2 4
398	4826740 16 548899 548899 56 56 1 0 0 0 0
399	4826756 16 548899 548899 56 56 1 1 1 1 1
400	4826772 17 548899 548899 56 56 1 31 31 31 961
401	4826789 956 548970 624381 56 59.84 49 0 48 1176 38024
402	4827745 956 548971 624382 56 59.84 49 0 48 1176 38024
403	4828701 2128 549026 624455 56 59.84 98 1546 1546 151508 234231368
404	4830829 48 568055 568055 57 57 3 0 2 2 4
405	4830877 16 568055 568055 57 57 1 0 0 0 0
406	4830893 16 568055 568055 57 57 1 1 1 1 1
407	4830909 17 568055 568055 57 57 1 31 31 31 961
408	4830926 718 568129 625191 57 59.88 37 0 36 666 16206
409	4831644 718 568130 625192 57 59.88 37 0 36 666 16206
410	4832362 1604 568189 625271 57 59.88 74 1546 1546 114404 176868584
411	4833966 48 587556 587556 58 58 3 0 2 2 4
412	4834014 16 587556 587556 58 58 1 0 0 0 0
413	4834030 16 587556 587556 58 58 1 1 1 1 1
414	4834046 17 587556 587556 58 58 1 31 31 31 961
415	4834063 463 587628 624383 58 59.84 24 0 23 276 4324
416	4834526 463 587629 624384 58 59.84 24 0 23 276 4324
417	4834989 1042 587686 624457 58 59.84 48 1546 1546 74208 114725568
418	4836031 48 607386 607386 59 59 3 0 2 2 4
419	4836079 16 607386 607386 59 59 1 0 0 0 0
420	4836095 16 607386 607386 59 59 1 1 1 1 1
421	4836111 17 607386 607386 59 59 1 31 31 31 961
422	4836128 225 607460 625193 59 59.88 12 0 11 66 506
423	4836353 225 607461 625194 59 59.88 12 0 11 66 506
424	4836578 518 607522 625273 59 59.88 24 1546 1546 37104 57362784
vector 425 Scenario.node[59].wlan[0].radio radioMode:vector ETV
attr interpolationmode sample-hold
attr source radioModeChanged
attr title "Radio mode, vector"
vector 426 Scenario.node[59].wlan[0].radio radioChannel:vector ETV
attr interpolationmode sample-hold
attr source radioChannelChanged
attr title "Radio channel, vector"
vector 427 Scenario.node[59].wlan[0].radio receptionState:vector ETV
attr interpolationmode sample-hold
attr source receptionStateChanged
attr title "Radio reception state, vector"
vector 428 Scenario.node[59].wlan[0].mac.dcf.recoveryProcedure contentionWindowChanged:vector ETV
attr interpolationmode sample-hold
attr title "contention window, vector"
vector 429 Scenario.node[59].app[0] pingTxSeq:vector ETV
attr interpolationmode none
attr title "ping tx seq, vector"
vector 430 Scenario.node[59].app[1] pingTxSeq:vector ETV
attr interpolationmode none
attr title "ping tx seq, vector"
vector 431 Scenario.node[59].ipv4.ip packetDropNoRouteFound:vector(packetBytes) ETV
attr interpolationmode none
attr source packetDropReasonIsNoRouteFound(packetDropped)
attr title "packet drop: no route found, vector(packetBytes)"
12	4838246 139 626744 636581 59.96 60.44 7 737 743 5180 3833228
13	4838385 139 626745 636582 59.96 60.44 7 737 743 5180 3833228
14	4838524 292 626823 636661 59.96 60.44 14 1546 1546 21644 33461624
15	4838816 601 625601 637053 59.9 60.46 29 2895 2923 84361 245408179
20	4839417 136 625944 635761 59.92 60.4 7 724 730 5089 3699731
21	4839553 136 625945 635762 59.92 60.4 7 724 730 5089 3699731
22	4839689 1086 625619 637076 59.9 60.46 58 84 84 4872 409248
23	4840775 1086 625619 637076 59.9 60.46 58 84 84 4872 409248
24	4841861 286 626020 635837 59.92 60.4 14 1546 1546 21644 33461624
25	4842147 601 625626 637078 59.9 60.46 29 2895 2923 84361 245408179
26	4842748 3060 625672 637127 59.903 60.463 162 1 2 243 405
28	4845808 3060 625672 637127 59.903 60.463 162 0 1 81 81
30	4848868 139 626746 636583 59.96 60.44 7 712 718 5005 3578603
31	4849007 139 626747 636584 59.96 60.44 7 712 718 5005 3578603
32	4849146 292 626825 636663 59.96 60.44 14 1546 1546 21644 33461624
37	4849438 136 625946 635763 59.92 60.4 7 699 705 4914 3449656
38	4849574 136 625947 635764 59.92 60.4 7 699 705 4914 3449656
39	4849710 286 626022 635839 59.92 60.4 14 1546 1546 21644 33461624
40	4849996 3060 625644 637097 59.901 60.461 162 1 2 243 405
42	4853056 3060 625644 637097 59.901 60.461 162 0 1 81 81
44	4856116 139 626748 636585 59.96 60.44 7 687 693 4830 3332728
45	4856255 139 626749 636586 59.96 60.44 7 687 693 4830 3332728
46	4856394 292 626827 636665 59.96 60.44 14 1546 1546 21644 33461624
51	4856686 136 625948 635765 59.92 60.4 7 674 680 4739 3208331
52	4856822 136 625949 635766 59.92 60.4 7 674 680 4739 3208331
53	4856958 286 626024 635841 59.92 60.4 14 1546 1546 21644 33461624
58	4857244 139 626750 636587 59.96 60.44 7 662 668 4655 3095603
59	4857383 139 626751 636588 59.96 60.44 7 662 668 4655 3095603
60	4857522 292 626829 636667 59.96 60.44 14 1546 1546 21644 33461624
65	4857814 136 625950 635767 59.92 60.4 7 649 655 4564 2975756
66	4857950 136 625951 635768 59.92 60.4 7 649 655 4564 2975756
67	4858086 286 626026 635843 59.92 60.4 14 1546 1546 21644 33461624
72	4858372 139 626752 636589 59.96 60.44 7 637 643 4480 2867228
73	4858511 139 626753 636590 59.96 60.44 7 637 643 4480 2867228
74	4858650 292 626831 636669 59.96 60.44 14 1546 1546 21644 33461624
79	4858942 136 625952 635769 59.92 60.4 7 624 630 4389 2751931
80	4859078 136 625953 635770 59.92 60.4 7 624 630 4389 2751931
81	4859214 286 626028 635845 59.92 60.4 14 1546 1546 21644 33461624
93	4859500 136 625954 635771 59.92 60.4 7 599 605 4214 2536856
94	4859636 136 625955 635772 59.92 60.4 7 599 605 4214 2536856
95	4859772 286 626030 635847 59.92 60.4 14 1546 1546 21644 33461624
100	4860058 146 626754 636591 59.96 60.44 7 587 593 4130 2436728
101	4860204 146 626755 636592 59.96 60.44 7 587 593 4130 2436728
102	4860350 306 626833 636671 59.96 60.44 14 1546 1546 21644 33461624
107	4860656 143 625956 635773 59.92 60.4 7 574 580 4039 2330531
108	4860799 143 625957 635774 59.92 60.4 7 574 580 4039 2330531
109	4860942 300 626032 635849 59.92 60.4 14 1546 1546 21644 33461624
114	4861242 146 626756 636593 59.96 60.44 7 562 568 3955 2234603
115	4861388 146 626757 636594 59.96 60.44 7 562 568 3955 2234603
116	4861534 306 626835 636673 59.96 60.44 14 1546 1546 21644 33461624
121	4861840 143 625958 635775 59.92 60.4 7 549 555 3864 2132956
122	4861983 143 625959 635776 59.92 60.4 7 549 555 3864 2132956
123	4862126 300 626034 635851 59.92 60.4 14 1546 1546 21644 33461624
124	4862426 3218 625654 637109 59.902 60.462 162 1 2 243 405
126	4865644 3218 625654 637109 59.902 60.462 162 0 1 81 81
128	4868862 143 625960 635777 59.92 60.4 7 524 530 3689 1944131
129	4869005 143 625961 635778 59.92 60.4 7 524 530 3689 1944131
130	4869148 300 626036 635853 59.92 60.4 14 1546 1546 21644 33461624
135	4869448 146 626758 636595 59.96 60.44 7 512 518 3605 1856603
136	4869594 146 626759 636596 59.96 60.44 7 512 518 3605 1856603
137	4869740 306 626837 636675 59.96 60.44 14 1546 1546 21644 33461624
146	4870046 143 625962 635779 59.92 60.4 7 499 505 3514 1764056
147	4870189 143 625963 635780 59.92 60.4 7 499 505 3514 1764056
148	4870332 143 625964 635781 59.92 60.4 7 499 505 3514 1764056
149	4870475 143 625965 635782 59.92 60.4 7 499 505 3514 1764056
150	4870618 300 626038 635855 59.92 60.4 14 1546 1546 21644 33461624
151	4870918 300 626040 635857 59.92 60.4 14 1546 1546 21644 33461624
156	4871218 146 626760 636597 59.96 60.44 7 487 493 3430 1680728
157	4871364 146 626761 636598 59.96 60.44 7 487 493 3430 1680728
158	4871510 306 626839 636677 59.96 60.44 14 1546 1546 21644 33461624
163	4871816 143 625966 635783 59.92 60.4 7 474 480 3339 1592731
164	4871959 143 625967 635784 59.92 60.4 7 474 480 3339 1592731
165	4872102 300 626042 635859 59.92 60.4 14 1546 1546 21644 33461624
170	4872402 146 626762 636599 59.96 60.44 7 462 468 3255 1513603
171	4872548 146 626763 636600 59.96 60.44 7 462 468 3255 1513603
172	4872694 306 626841 636679 59.96 60.44 14 1546 1546 21644 33461624
177	4873000 143 625968 635785 59.92 60.4 7 449 455 3164 1430156
178	4873143 143 625969 635786 59.92 60.4 7 449 455 3164 1430156
179	4873286 300 626044 635861 59.92 60.4 14 1546 1546 21644 33461624
180	4873586 3218 625652 637107 59.902 60.462 162 1 2 243 405
182	4876804 3218 625652 637107 59.902 60.462 162 0 1 81 81
184	4880022 146 626764 636601 59.96 60.44 7 437 443 3080 1355228
185	4880168 146 626765 636602 59.96 60.44 7 437 443 3080 1355228
186	4880314 306 626843 636681 59.96 60.44 14 1546 1546 21644 33461624
191	4880620 143 625970 635787 59.92 60.4 7 424 430 2989 1276331
192	4880763 143 625971 635788 59.92 60.4 7 424 430 2989 1276331
193	4880906 300 626046 635863 59.92 60.4 14 1546 1546 21644 33461624
198	4881206 146 626766 636603 59.96 60.44 7 412 418 2905 1205603
199	4881352 146 626767 636604 59.96 60.44 7 412 418 2905 1205603
200	4881498 306 626845 636683 59.96 60.44 14 1546 1546 21644 33461624
205	4881804 143 625972 635789 59.92 60.4 7 399 405 2814 1131256
206	4881947 143 625973 635790 59.92 60.4 7 399 405 2814 1131256
207	4882090 300 626048 635865 59.92 60.4 14 1546 1546 21644 33461624
212	4882390 146 626768 636605 59.96 60.44 7 387 393 2730 1064728
213	4882536 146 626769 636606 59.96 60.44 7 387 393 2730 1064728
214	4882682 306 626847 636685 59.96 60.44 14 1546 1546 21644 33461624
219	4882988 143 625974 635791 59.92 60.4 7 374 380 2639 994931
220	4883131 143 625975 635792 59.92 60.4 7 374 380 2639 994931
221	4883274 300 626050 635867 59.92 60.4 14 1546 1546 21644 33461624
226	4883574 146 626770 636607 59.96 60.44 7 362 368 2555 932603
227	4883720 146 626771 636608 59.96 60.44 7 362 368 2555 932603
228	4883866 306 626849 636687 59.96 60.44 14 1546 1546 21644 33461624
237	4884172 146 626772 636609 59.96 60.44 7 337 343 2380 809228
238	4884318 146 626773 636610 59.96 60.44 7 337 343 2380 809228
239	4884464 146 626774 636611 59.96 60.44 7 337 343 2380 809228
240	4884610 146 626775 636612 59.96 60.44 7 337 343 2380 809228
241	4884756 306 626851 636689 59.96 60.44 14 1546 1546 21644 33461624
242	4885062 306 626853 636691 59.96 60.44 14 1546 1546 21644 33461624
247	4885368 143 625976 635793 59.92 60.4 7 324 330 2289 748531
248	4885511 143 625977 635794 59.92 60.4 7 324 330 2289 748531
249	4885654 300 626052 635869 59.92 60.4 14 1546 1546 21644 33461624
254	4885954 146 626776 636613 59.96 60.44 7 312 318 2205 694603
255	4886100 146 626777 636614 59.96 60.44 7 312 318 2205 694603
256	4886246 306 626855 636693 59.96 60.44 14 1546 1546 21644 33461624
261	4886552 143 625978 635795 59.92 60.4 7 299 305 2114 638456
262	4886695 143 625979 635796 59.92 60.4 7 299 305 2114 638456
263	4886838 300 626054 635871 59.92 60.4 14 1546 1546 21644 33461624
268	4887138 146 626778 636615 59.96 60.44 7 287 293 2030 588728
269	4887284 146 626779 636616 59.96 60.44 7 287 293 2030 588728
270	4887430 306 626857 636695 59.96 60.44 14 1546 1546 21644 33461624
271	4887736 3222 625664 637119 59.903 60.463 162 1 2 243 405
273	4890958 3222 625664 637119 59.903 60.463 162 0 1 81 81
275	4894180 143 625980 635797 59.92 60.4 7 274 280 1939 537131
276	4894323 143 625981 635798 59.92 60.4 7 274 280 1939 537131
277	4894466 300 626056 635873 59.92 60.4 14 1546 1546 21644 33461624
282	4894766 146 626780 636617 59.96 60.44 7 262 268 1855 491603
283	4894912 146 626781 636618 59.96 60.44 7 262 268 1855 491603
284	4895058 306 626859 636697 59.96 60.44 14 1546 1546 21644 33461624
289	4895364 143 625982 635799 59.92 60.4 7 249 255 1764 444556
290	4895507 143 625983 635800 59.92 60.4 7 249 255 1764 444556
291	4895650 300 626058 635875 59.92 60.4 14 1546 1546 21644 33461624
296	4895950 146 626782 636619 59.96 60.44 7 237 243 1680 403228
297	4896096 146 626783 636620 59.96 60.44 7 237 243 1680 403228
298	4896242 306 626861 636699 59.96 60.44 14 1546 1546 21644 33461624
303	4896548 143 625984 635801 59.92 60.4 7 224 230 1589 360731
304	4896691 143 625985 635802 59.92 60.4 7 224 230 1589 360731
305	4896834 300 626060 635877 59.92 60.4 14 1546 1546 21644 33461624
310	4897134 146 626784 636621 59.96 60.44 7 212 218 1505 323603
311	4897280 146 626785 636622 59.96 60.44 7 212 218 1505 323603
312	4897426 306 626863 636701 59.96 60.44 14 1546 1546 21644 33461624
313	4897732 3222 625678 637133 59.904 60.464 162 1 2 243 405
315	4900954 3222 625678 637133 59.904 60.464 162 0 1 81 81
317	4904176 143 625986 635803 59.92 60.4 7 199 205 1414 285656
318	4904319 143 625987 635804 59.92 60.4 7 199 205 1414 285656
319	4904462 300 626062 635879 59.92 60.4 14 1546 1546 21644 33461624
324	4904762 146 626786 636623 59.96 60.44 7 187 193 1330 252728
325	4904908 146 626787 636624 59.96 60.44 7 187 193 1330 252728
326	4905054 306 626865 636703 59.96 60.44 14 1546 1546 21644 33461624
327	4905360 3218 625648 637103 59.902 60.462 162 1 2 243 405
329	4908578 3218 625648 637103 59.902 60.462 162 0 1 81 81
331	4911796 143 625988 635805 59.92 60.4 7 174 180 1239 219331
332	4911939 143 625989 635806 59.92 60.4 7 174 180 1239 219331
333	4912082 300 626064 635881 59.92 60.4 14 1546 1546 21644 33461624
338	4912382 146 626788 636625 59.96 60.44 7 162 168 1155 190603
339	4912528 146 626789 636626 59.96 60.44 7 162 168 1155 190603
340	4912674 306 626867 636705 59.96 60.44 14 1546 1546 21644 33461624
349	4912980 146 626790 636627 59.96 60.44 7 137 143 980 137228
350	4913126 146 626791 636628 59.96 60.44 7 137 143 980 137228
351	4913272 146 626792 636629 59.96 60.44 7 137 143 980 137228
352	4913418 146 626793 636630 59.96 60.44 7 137 143 980 137228
353	4913564 306 626869 636707 59.96 60.44 14 1546 1546 21644 33461624
354	4913870 306 626871 636709 59.96 60.44 14 1546 1546 21644 33461624
359	4914176 143 625990 635807 59.92 60.4 7 124 130 889 112931
360	4914319 143 625991 635808 59.92 60.4 7 124 130 889 112931
361	4914462 300 626066 635883 59.92 60.4 14 1546 1546 21644 33461624
366	4914762 146 626794 636631 59.96 60.44 7 112 118 805 92603
367	4914908 146 626795 636632 59.96 60.44 7 112 118 805 92603
368	4915054 306 626873 636711 59.96 60.44 14 1546 1546 21644 33461624
373	4915360 142 625992 635809 59.92 60.4 7 99 105 714 72856
374	4915502 142 625993 635810 59.92 60.4 7 99 105 714 72856
375	4915644 300 626068 635885 59.92 60.4 14 1546 1546 21644 33461624
380	4915944 139 626796 636633 59.96 60.44 7 87 93 630 56728
381	4916083 139 626797 636634 59.96 60.44 7 87 93 630 56728
382	4916222 306 626875 636713 59.96 60.44 14 1546 1546 21644 33461624
383	4916528 3222 625628 637081 59.901 60.461 162 1 2 243 405
385	4919750 3222 625628 637081 59.901 60.461 162 0 1 81 81
387	4922972 136 625994 635811 59.92 60.4 7 74 80 539 41531
388	4923108 136 625995 635812 59.92 60.4 7 74 80 539 41531
389	4923244 300 626070 635887 59.92 60.4 14 1546 1546 21644 33461624
394	4923544 139 626798 636635 59.96 60.44 7 62 68 455 29603
395	4923683 139 626799 636636 59.96 60.44 7 62 68 455 29603
396	4923822 306 626877 636715 59.96 60.44 14 1546 1546 21644 33461624
401	4924128 136 625996 635813 59.92 60.4 7 49 55 364 18956
402	4924264 136 625997 635814 59.92 60.4 7 49 55 364 18956
403	4924400 300 626072 635889 59.92 60.4 14 1546 1546 21644 33461624
408	4924700 139 626800 636637 59.96 60.44 7 37 43 280 11228
409	4924839 139 626801 636638 59.96 60.44 7 37 43 280 11228
410	4924978 306 626879 636717 59.96 60.44 14 1546 1546 21644 33461624
415	4925284 136 625998 635815 59.92 60.4 7 24 30 189 5131
416	4925420 136 625999 635816 59.92 60.4 7 24 30 189 5131
417	4925556 300 626074 635891 59.92 60.4 14 1546 1546 21644 33461624
422	4925856 139 626802 636639 59.96 60.44 7 12 18 105 1603
423	4925995 139 626803 636640 59.96 60.44 7 12 18 105 1603
424	4926134 306 626881 636719 59.96 60.44 14 1546 1546 21644 33461624
425	4926440 48 627563 627563 60 60 3 0 2 2 4
426	4926488 16 627563 627563 60 60 1 0 0 0 0
427	4926504 16 627563 627563 60 60 1 1 1 1 1
428	4926520 17 627563 627563 60 60 1 31 31 31 961
429	4926537 110 627633 635817 60 60.4 6 0 5 15 55
430	4926647 110 627634 635818 60 60.4 6 0 5 15 55
431	4926757 256 627693 635893 60 60.4 12 1546 1546 18552 28681392

