file 15494610 1749132579                                        
version 2
run General-0-20250605-14:08:35-47285
attr configname General
attr datetime 20250605-14:08:35
attr experiment General
attr inifile omnetpp.ini
attr iterationvars ""
attr iterationvarsf ""
attr measurement ""
attr network Scenario
attr processid 47285
attr repetition 0
attr replication #0
attr resultdir results
attr runnumber 0
attr seedset 0
param *.RSU.numApps 5
param *.RSU.app[0].typename "\"NJSPingApp\""
param *.RSU.app[0].destAddr "\"*\""
param *.RSU.app[0].sendInterval 20ms
param *.RSU.app[0].startTime 2s
param *.RSU.app[1].typename "\"NJSLoggingApp\""
param *.RSU.app[1].cleanAfterEachCalculation false
param *.RSU.app[2].typename "\"NJSLegacyLoggingApp\""
param *.RSU.app[2].cleanAfterEachCalculation false
param *.RSU.app[3].typename "\"SNRLoggingApp\""
param *.RSU.app[3].cleanAfterEachCalculation false
param *.RSU.app[4].typename "\"MLLoggingApp\""
param *.RSU.app[4].cleanAfterEachCalculation false
param *.RSU.wlan[*].radio.displayCommunicationRange true
param *.jammer.mobility.typename "\"StationaryMobility\""
param *.jammer.numApps 1
param *.jammer.app[0].typename "\"NJSJammerApp\""
param *.jammer.app[0].destAddr "\"\""
param *.jammer.app[0].sendInterval 5ms
param *.jammer.app[0].packetSize 8B
param *.jammer.app[0].jammingSourceAddress "\"jammer\""
param *.jammer.app[0].isProactive true
param *.jammer.app[0].useProximity true
param *.jammer.app[0].jammingRadius 215m
param *.jammer.wlan[*].radio.displayCommunicationRange true
param *.jammer.wlan[*].radio.transmitter.power 1.6mW
param *.node[*].numApps 2
param *.node[*].app[0].typename "\"NJSPingApp\""
param *.node[*].app[0].destAddr "\"RSU\""
param *.node[*].app[0].sendInterval 80ms
param *.node[*].app[0].packetSize 1518B
param *.node[*].app[1].typename "\"SNRPingApp\""
param *.node[*].app[1].destAddr "\"RSU\""
param *.node[*].app[1].sendInterval 80ms
param *.node[*].app[1].packetSize 1518B
param *.RSU.wlan[*].radio.transmitter.power 15mW
param *.node[*].wlan[*].radio.transmitter.power 15mW
param **.wlan[*].radio.transmitter.bitrate 2Mbps
param **.wlan[*].radio.transmitter.headerLength 272B
param **.wlan[*].radio.transmitter.centerFrequency 2.4GHz
param **.wlan[*].radio.receiver.sensitivity -85dBm
param **.wlan[*].radio.receiver.snirThreshold 4dB
param *.node[*].mobility.typename "\"VeinsInetMobility\""
param **.constraintAreaMinX 0m
param **.constraintAreaMinY 0m
param **.constraintAreaMinZ 0m
param **.constraintAreaMaxX 5500m
param **.constraintAreaMaxY 5500m
param **.constraintAreaMaxZ 50m
param *.manager.updateInterval 1s
param *.manager.host "\"localhost\""
param *.manager.port 9999
param *.manager.numVehicles 1
param *.manager.autoShutdown true
param *.manager.launchConfig "xmldoc(\"erlangen.launchd.xml\")"
param *.obstacles.obstacles "xmldoc(\"config.xml\", \"//AnalogueModel[@type='SimpleObstacleShadowing']/obstacles\")"
param *.manager.moduleType "\"inetwirelesstutorial.veins_inet.VeinsInetCar\""
param *.physicalEnvironment.config "xmldoc(\"obstacles.xml\")"
param *.radioMedium.obstacleLoss.typename "\"IdealObstacleLoss\""

vector 0 Scenario.RSU.wlan[0].radio radioMode:vector ETV
attr interpolationmode sample-hold
attr source radioModeChanged
attr title "Radio mode, vector"
vector 1 Scenario.RSU.wlan[0].radio radioChannel:vector ETV
attr interpolationmode sample-hold
attr source radioChannelChanged
attr title "Radio channel, vector"
vector 2 Scenario.jammer.wlan[0].radio radioMode:vector ETV
attr interpolationmode sample-hold
attr source radioModeChanged
attr title "Radio mode, vector"
vector 3 Scenario.jammer.wlan[0].radio radioChannel:vector ETV
attr interpolationmode sample-hold
attr source radioChannelChanged
attr title "Radio channel, vector"
vector 4 Scenario.RSU.wlan[0].radio receptionState:vector ETV
attr interpolationmode sample-hold
attr source receptionStateChanged
attr title "Radio reception state, vector"
vector 5 Scenario.jammer.wlan[0].radio receptionState:vector ETV
attr interpolationmode sample-hold
attr source receptionStateChanged
attr title "Radio reception state, vector"
vector 6 Scenario.RSU.wlan[0].mac.dcf.recoveryProcedure contentionWindowChanged:vector ETV
attr interpolationmode sample-hold
attr title "contention window, vector"
vector 7 Scenario.jammer.wlan[0].mac.dcf.recoveryProcedure contentionWindowChanged:vector ETV
attr interpolationmode sample-hold
attr title "contention window, vector"
vector 8 Scenario.node[0].wlan[0].radio radioMode:vector ETV
attr interpolationmode sample-hold
attr source radioModeChanged
attr title "Radio mode, vector"
vector 9 Scenario.node[0].wlan[0].radio radioChannel:vector ETV
attr interpolationmode sample-hold
attr source radioChannelChanged
attr title "Radio channel, vector"
vector 10 Scenario.node[0].wlan[0].radio receptionState:vector ETV
attr interpolationmode sample-hold
attr source receptionStateChanged
attr title "Radio reception state, vector"
vector 11 Scenario.node[0].wlan[0].mac.dcf.recoveryProcedure contentionWindowChanged:vector ETV
attr interpolationmode sample-hold
attr title "contention window, vector"
vector 12 Scenario.node[0].app[0] pingTxSeq:vector ETV
attr interpolationmode none
attr title "ping tx seq, vector"
vector 13 Scenario.node[0].app[1] pingTxSeq:vector ETV
attr interpolationmode none
attr title "ping tx seq, vector"
vector 14 Scenario.node[0].ipv4.ip packetDropNoRouteFound:vector(packetBytes) ETV
attr interpolationmode none
attr source packetDropReasonIsNoRouteFound(packetDropped)
attr title "packet drop: no route found, vector(packetBytes)"
vector 15 Scenario.RSU.app[0] pingTxSeq:vector ETV
attr interpolationmode none
attr title "ping tx seq, vector"
vector 16 Scenario.node[1].wlan[0].radio radioMode:vector ETV
attr interpolationmode sample-hold
attr source radioModeChanged
attr title "Radio mode, vector"
vector 17 Scenario.node[1].wlan[0].radio radioChannel:vector ETV
attr interpolationmode sample-hold
attr source radioChannelChanged
attr title "Radio channel, vector"
vector 18 Scenario.node[1].wlan[0].radio receptionState:vector ETV
attr interpolationmode sample-hold
attr source receptionStateChanged
attr title "Radio reception state, vector"
vector 19 Scenario.node[1].wlan[0].mac.dcf.recoveryProcedure contentionWindowChanged:vector ETV
attr interpolationmode sample-hold
attr title "contention window, vector"
vector 20 Scenario.node[1].app[0] pingTxSeq:vector ETV
attr interpolationmode none
attr title "ping tx seq, vector"
vector 21 Scenario.node[1].app[1] pingTxSeq:vector ETV
attr interpolationmode none
attr title "ping tx seq, vector"
vector 22 Scenario.RSU.lo[0].lo rcvdPkFromHl:vector(packetBytes) ETV
attr interpolationmode none
attr source packetReceivedFromUpper
attr title "packets received from higher layer, vector(packetBytes)"
vector 23 Scenario.RSU.lo[0].lo passedUpPk:vector(packetBytes) ETV
attr interpolationmode none
attr source packetSentToUpper
attr title "packets passed to higher layer, vector(packetBytes)"
vector 24 Scenario.node[1].ipv4.ip packetDropNoRouteFound:vector(packetBytes) ETV
attr interpolationmode none
attr source packetDropReasonIsNoRouteFound(packetDropped)
attr title "packet drop: no route found, vector(packetBytes)"
vector 25 Scenario.RSU.app[0] pingRxSeq:vector ETV
attr interpolationmode none
attr title "ping rx seq, vector"
vector 26 Scenario.node[2].wlan[0].radio radioMode:vector ETV
attr interpolationmode sample-hold
attr source radioModeChanged
attr title "Radio mode, vector"
vector 27 Scenario.node[2].wlan[0].radio radioChannel:vector ETV
attr interpolationmode sample-hold
attr source radioChannelChanged
attr title "Radio channel, vector"
vector 28 Scenario.node[2].wlan[0].radio receptionState:vector ETV
attr interpolationmode sample-hold
attr source receptionStateChanged
attr title "Radio reception state, vector"
vector 29 Scenario.node[2].wlan[0].mac.dcf.recoveryProcedure contentionWindowChanged:vector ETV
attr interpolationmode sample-hold
attr title "contention window, vector"
vector 30 Scenario.node[2].app[0] pingTxSeq:vector ETV
attr interpolationmode none
attr title "ping tx seq, vector"
vector 31 Scenario.node[2].app[1] pingTxSeq:vector ETV
attr interpolationmode none
attr title "ping tx seq, vector"
vector 32 Scenario.node[2].ipv4.ip packetDropNoRouteFound:vector(packetBytes) ETV
attr interpolationmode none
attr source packetDropReasonIsNoRouteFound(packetDropped)
attr title "packet drop: no route found, vector(packetBytes)"
vector 33 Scenario.node[3].wlan[0].radio radioMode:vector ETV
attr interpolationmode sample-hold
attr source radioModeChanged
attr title "Radio mode, vector"
vector 34 Scenario.node[3].wlan[0].radio radioChannel:vector ETV
attr interpolationmode sample-hold
attr source radioChannelChanged
attr title "Radio channel, vector"
vector 35 Scenario.node[3].wlan[0].radio receptionState:vector ETV
attr interpolationmode sample-hold
attr source receptionStateChanged
attr title "Radio reception state, vector"
vector 36 Scenario.node[3].wlan[0].mac.dcf.recoveryProcedure contentionWindowChanged:vector ETV
attr interpolationmode sample-hold
attr title "contention window, vector"
vector 37 Scenario.node[3].app[0] pingTxSeq:vector ETV
attr interpolationmode none
attr title "ping tx seq, vector"
vector 38 Scenario.node[3].app[1] pingTxSeq:vector ETV
attr interpolationmode none
attr title "ping tx seq, vector"
vector 39 Scenario.node[3].ipv4.ip packetDropNoRouteFound:vector(packetBytes) ETV
attr interpolationmode none
attr source packetDropReasonIsNoRouteFound(packetDropped)
attr title "packet drop: no route found, vector(packetBytes)"
vector 40 Scenario.node[4].wlan[0].radio radioMode:vector ETV
attr interpolationmode sample-hold
attr source radioModeChanged
attr title "Radio mode, vector"
vector 41 Scenario.node[4].wlan[0].radio radioChannel:vector ETV
attr interpolationmode sample-hold
attr source radioChannelChanged
attr title "Radio channel, vector"
vector 42 Scenario.node[4].wlan[0].radio receptionState:vector ETV
attr interpolationmode sample-hold
attr source receptionStateChanged
attr title "Radio reception state, vector"
vector 43 Scenario.node[4].wlan[0].mac.dcf.recoveryProcedure contentionWindowChanged:vector ETV
attr interpolationmode sample-hold
attr title "contention window, vector"
vector 44 Scenario.node[4].app[0] pingTxSeq:vector ETV
attr interpolationmode none
attr title "ping tx seq, vector"
vector 45 Scenario.node[4].app[1] pingTxSeq:vector ETV
attr interpolationmode none
attr title "ping tx seq, vector"
vector 46 Scenario.node[4].ipv4.ip packetDropNoRouteFound:vector(packetBytes) ETV
attr interpolationmode none
attr source packetDropReasonIsNoRouteFound(packetDropped)
attr title "packet drop: no route found, vector(packetBytes)"
vector 47 Scenario.node[5].wlan[0].radio radioMode:vector ETV
attr interpolationmode sample-hold
attr source radioModeChanged
attr title "Radio mode, vector"
vector 48 Scenario.node[5].wlan[0].radio radioChannel:vector ETV
attr interpolationmode sample-hold
attr source radioChannelChanged
attr title "Radio channel, vector"
vector 49 Scenario.node[5].wlan[0].radio receptionState:vector ETV
attr interpolationmode sample-hold
attr source receptionStateChanged
attr title "Radio reception state, vector"
vector 50 Scenario.node[5].wlan[0].mac.dcf.recoveryProcedure contentionWindowChanged:vector ETV
attr interpolationmode sample-hold
attr title "contention window, vector"
vector 51 Scenario.node[5].app[0] pingTxSeq:vector ETV
attr interpolationmode none
attr title "ping tx seq, vector"
vector 52 Scenario.node[5].app[1] pingTxSeq:vector ETV
attr interpolationmode none
attr title "ping tx seq, vector"
vector 53 Scenario.node[5].ipv4.ip packetDropNoRouteFound:vector(packetBytes) ETV
attr interpolationmode none
attr source packetDropReasonIsNoRouteFound(packetDropped)
attr title "packet drop: no route found, vector(packetBytes)"
vector 54 Scenario.node[6].wlan[0].radio radioMode:vector ETV
attr interpolationmode sample-hold
attr source radioModeChanged
attr title "Radio mode, vector"
vector 55 Scenario.node[6].wlan[0].radio radioChannel:vector ETV
attr interpolationmode sample-hold
attr source radioChannelChanged
attr title "Radio channel, vector"
vector 56 Scenario.node[6].wlan[0].radio receptionState:vector ETV
attr interpolationmode sample-hold
attr source receptionStateChanged
attr title "Radio reception state, vector"
vector 57 Scenario.node[6].wlan[0].mac.dcf.recoveryProcedure contentionWindowChanged:vector ETV
attr interpolationmode sample-hold
attr title "contention window, vector"
vector 58 Scenario.node[6].app[0] pingTxSeq:vector ETV
attr interpolationmode none
attr title "ping tx seq, vector"
vector 59 Scenario.node[6].app[1] pingTxSeq:vector ETV
attr interpolationmode none
attr title "ping tx seq, vector"
vector 60 Scenario.node[6].ipv4.ip packetDropNoRouteFound:vector(packetBytes) ETV
attr interpolationmode none
attr source packetDropReasonIsNoRouteFound(packetDropped)
attr title "packet drop: no route found, vector(packetBytes)"
vector 61 Scenario.node[7].wlan[0].radio radioMode:vector ETV
attr interpolationmode sample-hold
attr source radioModeChanged
attr title "Radio mode, vector"
vector 62 Scenario.node[7].wlan[0].radio radioChannel:vector ETV
attr interpolationmode sample-hold
attr source radioChannelChanged
attr title "Radio channel, vector"
vector 63 Scenario.node[7].wlan[0].radio receptionState:vector ETV
attr interpolationmode sample-hold
attr source receptionStateChanged
attr title "Radio reception state, vector"
vector 64 Scenario.node[7].wlan[0].mac.dcf.recoveryProcedure contentionWindowChanged:vector ETV
attr interpolationmode sample-hold
attr title "contention window, vector"
vector 65 Scenario.node[7].app[0] pingTxSeq:vector ETV
attr interpolationmode none
attr title "ping tx seq, vector"
vector 66 Scenario.node[7].app[1] pingTxSeq:vector ETV
attr interpolationmode none
attr title "ping tx seq, vector"
vector 67 Scenario.node[7].ipv4.ip packetDropNoRouteFound:vector(packetBytes) ETV
attr interpolationmode none
attr source packetDropReasonIsNoRouteFound(packetDropped)
attr title "packet drop: no route found, vector(packetBytes)"
vector 68 Scenario.node[8].wlan[0].radio radioMode:vector ETV
attr interpolationmode sample-hold
attr source radioModeChanged
attr title "Radio mode, vector"
vector 69 Scenario.node[8].wlan[0].radio radioChannel:vector ETV
attr interpolationmode sample-hold
attr source radioChannelChanged
attr title "Radio channel, vector"
vector 70 Scenario.node[8].wlan[0].radio receptionState:vector ETV
attr interpolationmode sample-hold
attr source receptionStateChanged
attr title "Radio reception state, vector"
vector 71 Scenario.node[8].wlan[0].mac.dcf.recoveryProcedure contentionWindowChanged:vector ETV
attr interpolationmode sample-hold
attr title "contention window, vector"
vector 72 Scenario.node[8].app[0] pingTxSeq:vector ETV
attr interpolationmode none
attr title "ping tx seq, vector"
vector 73 Scenario.node[8].app[1] pingTxSeq:vector ETV
attr interpolationmode none
attr title "ping tx seq, vector"
vector 74 Scenario.node[8].ipv4.ip packetDropNoRouteFound:vector(packetBytes) ETV
attr interpolationmode none
attr source packetDropReasonIsNoRouteFound(packetDropped)
attr title "packet drop: no route found, vector(packetBytes)"
vector 75 Scenario.node[9].wlan[0].radio radioMode:vector ETV
attr interpolationmode sample-hold
attr source radioModeChanged
attr title "Radio mode, vector"
vector 76 Scenario.node[9].wlan[0].radio radioChannel:vector ETV
attr interpolationmode sample-hold
attr source radioChannelChanged
attr title "Radio channel, vector"
vector 77 Scenario.node[9].wlan[0].radio receptionState:vector ETV
attr interpolationmode sample-hold
attr source receptionStateChanged
attr title "Radio reception state, vector"
vector 78 Scenario.node[9].wlan[0].mac.dcf.recoveryProcedure contentionWindowChanged:vector ETV
attr interpolationmode sample-hold
attr title "contention window, vector"
vector 79 Scenario.node[9].app[0] pingTxSeq:vector ETV
attr interpolationmode none
attr title "ping tx seq, vector"
vector 80 Scenario.node[9].app[1] pingTxSeq:vector ETV
attr interpolationmode none
attr title "ping tx seq, vector"
vector 81 Scenario.node[9].ipv4.ip packetDropNoRouteFound:vector(packetBytes) ETV
attr interpolationmode none
attr source packetDropReasonIsNoRouteFound(packetDropped)
attr title "packet drop: no route found, vector(packetBytes)"
vector 82 Scenario.node[10].wlan[0].radio radioMode:vector ETV
attr interpolationmode sample-hold
attr source radioModeChanged
attr title "Radio mode, vector"
vector 83 Scenario.node[10].wlan[0].radio radioChannel:vector ETV
attr interpolationmode sample-hold
attr source radioChannelChanged
attr title "Radio channel, vector"
vector 84 Scenario.node[10].wlan[0].radio receptionState:vector ETV
attr interpolationmode sample-hold
attr source receptionStateChanged
attr title "Radio reception state, vector"
vector 85 Scenario.node[10].wlan[0].mac.dcf.recoveryProcedure contentionWindowChanged:vector ETV
attr interpolationmode sample-hold
attr title "contention window, vector"
vector 86 Scenario.node[10].app[0] pingTxSeq:vector ETV
attr interpolationmode none
attr title "ping tx seq, vector"
vector 87 Scenario.node[10].app[1] pingTxSeq:vector ETV
attr interpolationmode none
attr title "ping tx seq, vector"
vector 88 Scenario.node[10].ipv4.ip packetDropNoRouteFound:vector(packetBytes) ETV
attr interpolationmode none
attr source packetDropReasonIsNoRouteFound(packetDropped)
attr title "packet drop: no route found, vector(packetBytes)"
vector 89 Scenario.node[11].wlan[0].radio radioMode:vector ETV
attr interpolationmode sample-hold
attr source radioModeChanged
attr title "Radio mode, vector"
vector 90 Scenario.node[11].wlan[0].radio radioChannel:vector ETV
attr interpolationmode sample-hold
attr source radioChannelChanged
attr title "Radio channel, vector"
vector 91 Scenario.node[11].wlan[0].radio receptionState:vector ETV
attr interpolationmode sample-hold
attr source receptionStateChanged
attr title "Radio reception state, vector"
vector 92 Scenario.node[11].wlan[0].mac.dcf.recoveryProcedure contentionWindowChanged:vector ETV
attr interpolationmode sample-hold
attr title "contention window, vector"
vector 93 Scenario.node[11].app[0] pingTxSeq:vector ETV
attr interpolationmode none
attr title "ping tx seq, vector"
vector 94 Scenario.node[11].app[1] pingTxSeq:vector ETV
attr interpolationmode none
attr title "ping tx seq, vector"
vector 95 Scenario.node[11].ipv4.ip packetDropNoRouteFound:vector(packetBytes) ETV
attr interpolationmode none
attr source packetDropReasonIsNoRouteFound(packetDropped)
attr title "packet drop: no route found, vector(packetBytes)"
vector 96 Scenario.node[12].wlan[0].radio radioMode:vector ETV
attr interpolationmode sample-hold
attr source radioModeChanged
attr title "Radio mode, vector"
vector 97 Scenario.node[12].wlan[0].radio radioChannel:vector ETV
attr interpolationmode sample-hold
attr source radioChannelChanged
attr title "Radio channel, vector"
vector 98 Scenario.node[12].wlan[0].radio receptionState:vector ETV
attr interpolationmode sample-hold
attr source receptionStateChanged
attr title "Radio reception state, vector"
vector 99 Scenario.node[12].wlan[0].mac.dcf.recoveryProcedure contentionWindowChanged:vector ETV
attr interpolationmode sample-hold
attr title "contention window, vector"
vector 100 Scenario.node[12].app[0] pingTxSeq:vector ETV
attr interpolationmode none
attr title "ping tx seq, vector"
vector 101 Scenario.node[12].app[1] pingTxSeq:vector ETV
attr interpolationmode none
attr title "ping tx seq, vector"
vector 102 Scenario.node[12].ipv4.ip packetDropNoRouteFound:vector(packetBytes) ETV
attr interpolationmode none
attr source packetDropReasonIsNoRouteFound(packetDropped)
attr title "packet drop: no route found, vector(packetBytes)"
vector 103 Scenario.node[13].wlan[0].radio radioMode:vector ETV
attr interpolationmode sample-hold
attr source radioModeChanged
attr title "Radio mode, vector"
vector 104 Scenario.node[13].wlan[0].radio radioChannel:vector ETV
attr interpolationmode sample-hold
attr source radioChannelChanged
attr title "Radio channel, vector"
vector 105 Scenario.node[13].wlan[0].radio receptionState:vector ETV
attr interpolationmode sample-hold
attr source receptionStateChanged
attr title "Radio reception state, vector"
vector 106 Scenario.node[13].wlan[0].mac.dcf.recoveryProcedure contentionWindowChanged:vector ETV
attr interpolationmode sample-hold
attr title "contention window, vector"
vector 107 Scenario.node[13].app[0] pingTxSeq:vector ETV
attr interpolationmode none
attr title "ping tx seq, vector"
vector 108 Scenario.node[13].app[1] pingTxSeq:vector ETV
attr interpolationmode none
attr title "ping tx seq, vector"
vector 109 Scenario.node[13].ipv4.ip packetDropNoRouteFound:vector(packetBytes) ETV
attr interpolationmode none
attr source packetDropReasonIsNoRouteFound(packetDropped)
attr title "packet drop: no route found, vector(packetBytes)"
vector 110 Scenario.node[14].wlan[0].radio radioMode:vector ETV
attr interpolationmode sample-hold
attr source radioModeChanged
attr title "Radio mode, vector"
vector 111 Scenario.node[14].wlan[0].radio radioChannel:vector ETV
attr interpolationmode sample-hold
attr source radioChannelChanged
attr title "Radio channel, vector"
vector 112 Scenario.node[14].wlan[0].radio receptionState:vector ETV
attr interpolationmode sample-hold
attr source receptionStateChanged
attr title "Radio reception state, vector"
vector 113 Scenario.node[14].wlan[0].mac.dcf.recoveryProcedure contentionWindowChanged:vector ETV
attr interpolationmode sample-hold
attr title "contention window, vector"
vector 114 Scenario.node[14].app[0] pingTxSeq:vector ETV
attr interpolationmode none
attr title "ping tx seq, vector"
vector 115 Scenario.node[14].app[1] pingTxSeq:vector ETV
attr interpolationmode none
attr title "ping tx seq, vector"
vector 116 Scenario.node[14].ipv4.ip packetDropNoRouteFound:vector(packetBytes) ETV
attr interpolationmode none
attr source packetDropReasonIsNoRouteFound(packetDropped)
attr title "packet drop: no route found, vector(packetBytes)"
vector 117 Scenario.node[15].wlan[0].radio radioMode:vector ETV
attr interpolationmode sample-hold
attr source radioModeChanged
attr title "Radio mode, vector"
vector 118 Scenario.node[15].wlan[0].radio radioChannel:vector ETV
attr interpolationmode sample-hold
attr source radioChannelChanged
attr title "Radio channel, vector"
vector 119 Scenario.node[15].wlan[0].radio receptionState:vector ETV
attr interpolationmode sample-hold
attr source receptionStateChanged
attr title "Radio reception state, vector"
vector 120 Scenario.node[15].wlan[0].mac.dcf.recoveryProcedure contentionWindowChanged:vector ETV
attr interpolationmode sample-hold
attr title "contention window, vector"
vector 121 Scenario.node[15].app[0] pingTxSeq:vector ETV
attr interpolationmode none
attr title "ping tx seq, vector"
vector 122 Scenario.node[15].app[1] pingTxSeq:vector ETV
attr interpolationmode none
attr title "ping tx seq, vector"
vector 123 Scenario.node[15].ipv4.ip packetDropNoRouteFound:vector(packetBytes) ETV
attr interpolationmode none
attr source packetDropReasonIsNoRouteFound(packetDropped)
attr title "packet drop: no route found, vector(packetBytes)"
vector 124 Scenario.node[16].wlan[0].radio radioMode:vector ETV
attr interpolationmode sample-hold
attr source radioModeChanged
attr title "Radio mode, vector"
vector 125 Scenario.node[16].wlan[0].radio radioChannel:vector ETV
attr interpolationmode sample-hold
attr source radioChannelChanged
attr title "Radio channel, vector"
vector 126 Scenario.node[16].wlan[0].radio receptionState:vector ETV
attr interpolationmode sample-hold
attr source receptionStateChanged
attr title "Radio reception state, vector"
vector 127 Scenario.node[16].wlan[0].mac.dcf.recoveryProcedure contentionWindowChanged:vector ETV
attr interpolationmode sample-hold
attr title "contention window, vector"
vector 128 Scenario.node[16].app[0] pingTxSeq:vector ETV
attr interpolationmode none
attr title "ping tx seq, vector"
vector 129 Scenario.node[16].app[1] pingTxSeq:vector ETV
attr interpolationmode none
attr title "ping tx seq, vector"
vector 130 Scenario.node[16].ipv4.ip packetDropNoRouteFound:vector(packetBytes) ETV
attr interpolationmode none
attr source packetDropReasonIsNoRouteFound(packetDropped)
attr title "packet drop: no route found, vector(packetBytes)"
vector 131 Scenario.node[17].wlan[0].radio radioMode:vector ETV
attr interpolationmode sample-hold
attr source radioModeChanged
attr title "Radio mode, vector"
vector 132 Scenario.node[17].wlan[0].radio radioChannel:vector ETV
attr interpolationmode sample-hold
attr source radioChannelChanged
attr title "Radio channel, vector"
vector 133 Scenario.node[17].wlan[0].radio receptionState:vector ETV
attr interpolationmode sample-hold
attr source receptionStateChanged
attr title "Radio reception state, vector"
vector 134 Scenario.node[17].wlan[0].mac.dcf.recoveryProcedure contentionWindowChanged:vector ETV
attr interpolationmode sample-hold
attr title "contention window, vector"
vector 135 Scenario.node[17].app[0] pingTxSeq:vector ETV
attr interpolationmode none
attr title "ping tx seq, vector"
vector 136 Scenario.node[17].app[1] pingTxSeq:vector ETV
attr interpolationmode none
attr title "ping tx seq, vector"
vector 137 Scenario.node[17].ipv4.ip packetDropNoRouteFound:vector(packetBytes) ETV
attr interpolationmode none
attr source packetDropReasonIsNoRouteFound(packetDropped)
attr title "packet drop: no route found, vector(packetBytes)"
vector 138 Scenario.node[18].wlan[0].radio radioMode:vector ETV
attr interpolationmode sample-hold
attr source radioModeChanged
attr title "Radio mode, vector"
vector 139 Scenario.node[18].wlan[0].radio radioChannel:vector ETV
attr interpolationmode sample-hold
attr source radioChannelChanged
attr title "Radio channel, vector"
vector 140 Scenario.node[18].wlan[0].radio receptionState:vector ETV
attr interpolationmode sample-hold
attr source receptionStateChanged
attr title "Radio reception state, vector"
vector 141 Scenario.node[18].wlan[0].mac.dcf.recoveryProcedure contentionWindowChanged:vector ETV
attr interpolationmode sample-hold
attr title "contention window, vector"
vector 142 Scenario.node[19].wlan[0].radio radioMode:vector ETV
attr interpolationmode sample-hold
attr source radioModeChanged
attr title "Radio mode, vector"
vector 143 Scenario.node[19].wlan[0].radio radioChannel:vector ETV
attr interpolationmode sample-hold
attr source radioChannelChanged
attr title "Radio channel, vector"
vector 144 Scenario.node[19].wlan[0].radio receptionState:vector ETV
attr interpolationmode sample-hold
attr source receptionStateChanged
attr title "Radio reception state, vector"
vector 145 Scenario.node[19].wlan[0].mac.dcf.recoveryProcedure contentionWindowChanged:vector ETV
attr interpolationmode sample-hold
attr title "contention window, vector"
vector 146 Scenario.node[18].app[0] pingTxSeq:vector ETV
attr interpolationmode none
attr title "ping tx seq, vector"
vector 147 Scenario.node[18].app[1] pingTxSeq:vector ETV
attr interpolationmode none
attr title "ping tx seq, vector"
vector 148 Scenario.node[19].app[0] pingTxSeq:vector ETV
attr interpolationmode none
attr title "ping tx seq, vector"
vector 149 Scenario.node[19].app[1] pingTxSeq:vector ETV
attr interpolationmode none
attr title "ping tx seq, vector"
vector 150 Scenario.node[18].ipv4.ip packetDropNoRouteFound:vector(packetBytes) ETV
attr interpolationmode none
attr source packetDropReasonIsNoRouteFound(packetDropped)
attr title "packet drop: no route found, vector(packetBytes)"
vector 151 Scenario.node[19].ipv4.ip packetDropNoRouteFound:vector(packetBytes) ETV
attr interpolationmode none
attr source packetDropReasonIsNoRouteFound(packetDropped)
attr title "packet drop: no route found, vector(packetBytes)"
vector 152 Scenario.node[20].wlan[0].radio radioMode:vector ETV
attr interpolationmode sample-hold
attr source radioModeChanged
attr title "Radio mode, vector"
vector 153 Scenario.node[20].wlan[0].radio radioChannel:vector ETV
attr interpolationmode sample-hold
attr source radioChannelChanged
attr title "Radio channel, vector"
vector 154 Scenario.node[20].wlan[0].radio receptionState:vector ETV
attr interpolationmode sample-hold
attr source receptionStateChanged
attr title "Radio reception state, vector"
vector 155 Scenario.node[20].wlan[0].mac.dcf.recoveryProcedure contentionWindowChanged:vector ETV
attr interpolationmode sample-hold
attr title "contention window, vector"
vector 156 Scenario.node[20].app[0] pingTxSeq:vector ETV
attr interpolationmode none
attr title "ping tx seq, vector"
vector 157 Scenario.node[20].app[1] pingTxSeq:vector ETV
attr interpolationmode none
attr title "ping tx seq, vector"
vector 158 Scenario.node[20].ipv4.ip packetDropNoRouteFound:vector(packetBytes) ETV
attr interpolationmode none
attr source packetDropReasonIsNoRouteFound(packetDropped)
attr title "packet drop: no route found, vector(packetBytes)"
vector 159 Scenario.node[21].wlan[0].radio radioMode:vector ETV
attr interpolationmode sample-hold
attr source radioModeChanged
attr title "Radio mode, vector"
vector 160 Scenario.node[21].wlan[0].radio radioChannel:vector ETV
attr interpolationmode sample-hold
attr source radioChannelChanged
attr title "Radio channel, vector"
vector 161 Scenario.node[21].wlan[0].radio receptionState:vector ETV
attr interpolationmode sample-hold
attr source receptionStateChanged
attr title "Radio reception state, vector"
vector 162 Scenario.node[21].wlan[0].mac.dcf.recoveryProcedure contentionWindowChanged:vector ETV
attr interpolationmode sample-hold
attr title "contention window, vector"
vector 163 Scenario.node[21].app[0] pingTxSeq:vector ETV
attr interpolationmode none
attr title "ping tx seq, vector"
vector 164 Scenario.node[21].app[1] pingTxSeq:vector ETV
attr interpolationmode none
attr title "ping tx seq, vector"
vector 165 Scenario.node[21].ipv4.ip packetDropNoRouteFound:vector(packetBytes) ETV
attr interpolationmode none
attr source packetDropReasonIsNoRouteFound(packetDropped)
attr title "packet drop: no route found, vector(packetBytes)"
vector 166 Scenario.node[22].wlan[0].radio radioMode:vector ETV
attr interpolationmode sample-hold
attr source radioModeChanged
attr title "Radio mode, vector"
vector 167 Scenario.node[22].wlan[0].radio radioChannel:vector ETV
attr interpolationmode sample-hold
attr source radioChannelChanged
attr title "Radio channel, vector"
vector 168 Scenario.node[22].wlan[0].radio receptionState:vector ETV
attr interpolationmode sample-hold
attr source receptionStateChanged
attr title "Radio reception state, vector"
vector 169 Scenario.node[22].wlan[0].mac.dcf.recoveryProcedure contentionWindowChanged:vector ETV
attr interpolationmode sample-hold
attr title "contention window, vector"
vector 170 Scenario.node[22].app[0] pingTxSeq:vector ETV
attr interpolationmode none
attr title "ping tx seq, vector"
vector 171 Scenario.node[22].app[1] pingTxSeq:vector ETV
attr interpolationmode none
attr title "ping tx seq, vector"
vector 172 Scenario.node[22].ipv4.ip packetDropNoRouteFound:vector(packetBytes) ETV
attr interpolationmode none
attr source packetDropReasonIsNoRouteFound(packetDropped)
attr title "packet drop: no route found, vector(packetBytes)"
vector 173 Scenario.node[23].wlan[0].radio radioMode:vector ETV
attr interpolationmode sample-hold
attr source radioModeChanged
attr title "Radio mode, vector"
vector 174 Scenario.node[23].wlan[0].radio radioChannel:vector ETV
attr interpolationmode sample-hold
attr source radioChannelChanged
attr title "Radio channel, vector"
vector 175 Scenario.node[23].wlan[0].radio receptionState:vector ETV
attr interpolationmode sample-hold
attr source receptionStateChanged
attr title "Radio reception state, vector"
vector 176 Scenario.node[23].wlan[0].mac.dcf.recoveryProcedure contentionWindowChanged:vector ETV
attr interpolationmode sample-hold
attr title "contention window, vector"
vector 177 Scenario.node[23].app[0] pingTxSeq:vector ETV
attr interpolationmode none
attr title "ping tx seq, vector"
vector 178 Scenario.node[23].app[1] pingTxSeq:vector ETV
attr interpolationmode none
attr title "ping tx seq, vector"
vector 179 Scenario.node[23].ipv4.ip packetDropNoRouteFound:vector(packetBytes) ETV
attr interpolationmode none
attr source packetDropReasonIsNoRouteFound(packetDropped)
attr title "packet drop: no route found, vector(packetBytes)"
vector 180 Scenario.node[24].wlan[0].radio radioMode:vector ETV
attr interpolationmode sample-hold
attr source radioModeChanged
attr title "Radio mode, vector"
vector 181 Scenario.node[24].wlan[0].radio radioChannel:vector ETV
attr interpolationmode sample-hold
attr source radioChannelChanged
attr title "Radio channel, vector"
vector 182 Scenario.node[24].wlan[0].radio receptionState:vector ETV
attr interpolationmode sample-hold
attr source receptionStateChanged
attr title "Radio reception state, vector"
vector 183 Scenario.node[24].wlan[0].mac.dcf.recoveryProcedure contentionWindowChanged:vector ETV
attr interpolationmode sample-hold
attr title "contention window, vector"
vector 184 Scenario.node[24].app[0] pingTxSeq:vector ETV
attr interpolationmode none
attr title "ping tx seq, vector"
vector 185 Scenario.node[24].app[1] pingTxSeq:vector ETV
attr interpolationmode none
attr title "ping tx seq, vector"
vector 186 Scenario.node[24].ipv4.ip packetDropNoRouteFound:vector(packetBytes) ETV
attr interpolationmode none
attr source packetDropReasonIsNoRouteFound(packetDropped)
attr title "packet drop: no route found, vector(packetBytes)"
vector 187 Scenario.node[25].wlan[0].radio radioMode:vector ETV
attr interpolationmode sample-hold
attr source radioModeChanged
attr title "Radio mode, vector"
vector 188 Scenario.node[25].wlan[0].radio radioChannel:vector ETV
attr interpolationmode sample-hold
attr source radioChannelChanged
attr title "Radio channel, vector"
vector 189 Scenario.node[25].wlan[0].radio receptionState:vector ETV
attr interpolationmode sample-hold
attr source receptionStateChanged
attr title "Radio reception state, vector"
vector 190 Scenario.node[25].wlan[0].mac.dcf.recoveryProcedure contentionWindowChanged:vector ETV
attr interpolationmode sample-hold
attr title "contention window, vector"
vector 191 Scenario.node[25].app[0] pingTxSeq:vector ETV
attr interpolationmode none
attr title "ping tx seq, vector"
vector 192 Scenario.node[25].app[1] pingTxSeq:vector ETV
attr interpolationmode none
attr title "ping tx seq, vector"
vector 193 Scenario.node[25].ipv4.ip packetDropNoRouteFound:vector(packetBytes) ETV
attr interpolationmode none
attr source packetDropReasonIsNoRouteFound(packetDropped)
attr title "packet drop: no route found, vector(packetBytes)"
vector 194 Scenario.node[26].wlan[0].radio radioMode:vector ETV
attr interpolationmode sample-hold
attr source radioModeChanged
attr title "Radio mode, vector"
vector 195 Scenario.node[26].wlan[0].radio radioChannel:vector ETV
attr interpolationmode sample-hold
attr source radioChannelChanged
attr title "Radio channel, vector"
vector 196 Scenario.node[26].wlan[0].radio receptionState:vector ETV
attr interpolationmode sample-hold
attr source receptionStateChanged
attr title "Radio reception state, vector"
vector 197 Scenario.node[26].wlan[0].mac.dcf.recoveryProcedure contentionWindowChanged:vector ETV
attr interpolationmode sample-hold
attr title "contention window, vector"
vector 198 Scenario.node[26].app[0] pingTxSeq:vector ETV
attr interpolationmode none
attr title "ping tx seq, vector"
vector 199 Scenario.node[26].app[1] pingTxSeq:vector ETV
attr interpolationmode none
attr title "ping tx seq, vector"
vector 200 Scenario.node[26].ipv4.ip packetDropNoRouteFound:vector(packetBytes) ETV
attr interpolationmode none
attr source packetDropReasonIsNoRouteFound(packetDropped)
attr title "packet drop: no route found, vector(packetBytes)"
vector 201 Scenario.node[27].wlan[0].radio radioMode:vector ETV
attr interpolationmode sample-hold
attr source radioModeChanged
attr title "Radio mode, vector"
vector 202 Scenario.node[27].wlan[0].radio radioChannel:vector ETV
attr interpolationmode sample-hold
attr source radioChannelChanged
attr title "Radio channel, vector"
vector 203 Scenario.node[27].wlan[0].radio receptionState:vector ETV
attr interpolationmode sample-hold
attr source receptionStateChanged
attr title "Radio reception state, vector"
vector 204 Scenario.node[27].wlan[0].mac.dcf.recoveryProcedure contentionWindowChanged:vector ETV
attr interpolationmode sample-hold
attr title "contention window, vector"
vector 205 Scenario.node[27].app[0] pingTxSeq:vector ETV
attr interpolationmode none
attr title "ping tx seq, vector"
vector 206 Scenario.node[27].app[1] pingTxSeq:vector ETV
attr interpolationmode none
attr title "ping tx seq, vector"
vector 207 Scenario.node[27].ipv4.ip packetDropNoRouteFound:vector(packetBytes) ETV
attr interpolationmode none
attr source packetDropReasonIsNoRouteFound(packetDropped)
attr title "packet drop: no route found, vector(packetBytes)"
vector 208 Scenario.node[28].wlan[0].radio radioMode:vector ETV
attr interpolationmode sample-hold
attr source radioModeChanged
attr title "Radio mode, vector"
vector 209 Scenario.node[28].wlan[0].radio radioChannel:vector ETV
attr interpolationmode sample-hold
attr source radioChannelChanged
attr title "Radio channel, vector"
vector 210 Scenario.node[28].wlan[0].radio receptionState:vector ETV
attr interpolationmode sample-hold
attr source receptionStateChanged
attr title "Radio reception state, vector"
vector 211 Scenario.node[28].wlan[0].mac.dcf.recoveryProcedure contentionWindowChanged:vector ETV
attr interpolationmode sample-hold
attr title "contention window, vector"
vector 212 Scenario.node[28].app[0] pingTxSeq:vector ETV
attr interpolationmode none
attr title "ping tx seq, vector"
vector 213 Scenario.node[28].app[1] pingTxSeq:vector ETV
attr interpolationmode none
attr title "ping tx seq, vector"
vector 214 Scenario.node[28].ipv4.ip packetDropNoRouteFound:vector(packetBytes) ETV
attr interpolationmode none
attr source packetDropReasonIsNoRouteFound(packetDropped)
attr title "packet drop: no route found, vector(packetBytes)"
vector 215 Scenario.node[29].wlan[0].radio radioMode:vector ETV
attr interpolationmode sample-hold
attr source radioModeChanged
attr title "Radio mode, vector"
vector 216 Scenario.node[29].wlan[0].radio radioChannel:vector ETV
attr interpolationmode sample-hold
attr source radioChannelChanged
attr title "Radio channel, vector"
vector 217 Scenario.node[29].wlan[0].radio receptionState:vector ETV
attr interpolationmode sample-hold
attr source receptionStateChanged
attr title "Radio reception state, vector"
vector 218 Scenario.node[29].wlan[0].mac.dcf.recoveryProcedure contentionWindowChanged:vector ETV
attr interpolationmode sample-hold
attr title "contention window, vector"
vector 219 Scenario.node[29].app[0] pingTxSeq:vector ETV
attr interpolationmode none
attr title "ping tx seq, vector"
vector 220 Scenario.node[29].app[1] pingTxSeq:vector ETV
attr interpolationmode none
attr title "ping tx seq, vector"
vector 221 Scenario.node[29].ipv4.ip packetDropNoRouteFound:vector(packetBytes) ETV
attr interpolationmode none
attr source packetDropReasonIsNoRouteFound(packetDropped)
attr title "packet drop: no route found, vector(packetBytes)"
vector 222 Scenario.node[30].wlan[0].radio radioMode:vector ETV
attr interpolationmode sample-hold
attr source radioModeChanged
attr title "Radio mode, vector"
vector 223 Scenario.node[30].wlan[0].radio radioChannel:vector ETV
attr interpolationmode sample-hold
attr source radioChannelChanged
attr title "Radio channel, vector"
vector 224 Scenario.node[30].wlan[0].radio receptionState:vector ETV
attr interpolationmode sample-hold
attr source receptionStateChanged
attr title "Radio reception state, vector"
vector 225 Scenario.node[30].wlan[0].mac.dcf.recoveryProcedure contentionWindowChanged:vector ETV
attr interpolationmode sample-hold
attr title "contention window, vector"
vector 226 Scenario.node[30].app[0] pingTxSeq:vector ETV
attr interpolationmode none
attr title "ping tx seq, vector"
vector 227 Scenario.node[30].app[1] pingTxSeq:vector ETV
attr interpolationmode none
attr title "ping tx seq, vector"
vector 228 Scenario.node[30].ipv4.ip packetDropNoRouteFound:vector(packetBytes) ETV
attr interpolationmode none
attr source packetDropReasonIsNoRouteFound(packetDropped)
attr title "packet drop: no route found, vector(packetBytes)"
vector 229 Scenario.node[31].wlan[0].radio radioMode:vector ETV
attr interpolationmode sample-hold
attr source radioModeChanged
attr title "Radio mode, vector"
vector 230 Scenario.node[31].wlan[0].radio radioChannel:vector ETV
attr interpolationmode sample-hold
attr source radioChannelChanged
attr title "Radio channel, vector"
vector 231 Scenario.node[31].wlan[0].radio receptionState:vector ETV
attr interpolationmode sample-hold
attr source receptionStateChanged
attr title "Radio reception state, vector"
vector 232 Scenario.node[31].wlan[0].mac.dcf.recoveryProcedure contentionWindowChanged:vector ETV
attr interpolationmode sample-hold
attr title "contention window, vector"
vector 233 Scenario.node[32].wlan[0].radio radioMode:vector ETV
attr interpolationmode sample-hold
attr source radioModeChanged
attr title "Radio mode, vector"
vector 234 Scenario.node[32].wlan[0].radio radioChannel:vector ETV
attr interpolationmode sample-hold
attr source radioChannelChanged
attr title "Radio channel, vector"
vector 235 Scenario.node[32].wlan[0].radio receptionState:vector ETV
attr interpolationmode sample-hold
attr source receptionStateChanged
attr title "Radio reception state, vector"
vector 236 Scenario.node[32].wlan[0].mac.dcf.recoveryProcedure contentionWindowChanged:vector ETV
attr interpolationmode sample-hold
attr title "contention window, vector"
vector 237 Scenario.node[31].app[0] pingTxSeq:vector ETV
attr interpolationmode none
attr title "ping tx seq, vector"
vector 238 Scenario.node[31].app[1] pingTxSeq:vector ETV
attr interpolationmode none
attr title "ping tx seq, vector"
vector 239 Scenario.node[32].app[0] pingTxSeq:vector ETV
attr interpolationmode none
attr title "ping tx seq, vector"
vector 240 Scenario.node[32].app[1] pingTxSeq:vector ETV
attr interpolationmode none
attr title "ping tx seq, vector"
vector 241 Scenario.node[31].ipv4.ip packetDropNoRouteFound:vector(packetBytes) ETV
attr interpolationmode none
attr source packetDropReasonIsNoRouteFound(packetDropped)
attr title "packet drop: no route found, vector(packetBytes)"
vector 242 Scenario.node[32].ipv4.ip packetDropNoRouteFound:vector(packetBytes) ETV
attr interpolationmode none
attr source packetDropReasonIsNoRouteFound(packetDropped)
attr title "packet drop: no route found, vector(packetBytes)"
vector 243 Scenario.node[33].wlan[0].radio radioMode:vector ETV
attr interpolationmode sample-hold
attr source radioModeChanged
attr title "Radio mode, vector"
vector 244 Scenario.node[33].wlan[0].radio radioChannel:vector ETV
attr interpolationmode sample-hold
attr source radioChannelChanged
attr title "Radio channel, vector"
vector 245 Scenario.node[33].wlan[0].radio receptionState:vector ETV
attr interpolationmode sample-hold
attr source receptionStateChanged
attr title "Radio reception state, vector"
vector 246 Scenario.node[33].wlan[0].mac.dcf.recoveryProcedure contentionWindowChanged:vector ETV
attr interpolationmode sample-hold
attr title "contention window, vector"
vector 247 Scenario.node[33].app[0] pingTxSeq:vector ETV
attr interpolationmode none
attr title "ping tx seq, vector"
vector 248 Scenario.node[33].app[1] pingTxSeq:vector ETV
attr interpolationmode none
attr title "ping tx seq, vector"
vector 249 Scenario.node[33].ipv4.ip packetDropNoRouteFound:vector(packetBytes) ETV
attr interpolationmode none
attr source packetDropReasonIsNoRouteFound(packetDropped)
attr title "packet drop: no route found, vector(packetBytes)"
vector 250 Scenario.node[34].wlan[0].radio radioMode:vector ETV
attr interpolationmode sample-hold
attr source radioModeChanged
attr title "Radio mode, vector"
vector 251 Scenario.node[34].wlan[0].radio radioChannel:vector ETV
attr interpolationmode sample-hold
attr source radioChannelChanged
attr title "Radio channel, vector"
vector 252 Scenario.node[34].wlan[0].radio receptionState:vector ETV
attr interpolationmode sample-hold
attr source receptionStateChanged
attr title "Radio reception state, vector"
vector 253 Scenario.node[34].wlan[0].mac.dcf.recoveryProcedure contentionWindowChanged:vector ETV
attr interpolationmode sample-hold
attr title "contention window, vector"
vector 254 Scenario.node[34].app[0] pingTxSeq:vector ETV
attr interpolationmode none
attr title "ping tx seq, vector"
vector 255 Scenario.node[34].app[1] pingTxSeq:vector ETV
attr interpolationmode none
attr title "ping tx seq, vector"
vector 256 Scenario.node[34].ipv4.ip packetDropNoRouteFound:vector(packetBytes) ETV
attr interpolationmode none
attr source packetDropReasonIsNoRouteFound(packetDropped)
attr title "packet drop: no route found, vector(packetBytes)"
vector 257 Scenario.node[35].wlan[0].radio radioMode:vector ETV
attr interpolationmode sample-hold
attr source radioModeChanged
attr title "Radio mode, vector"
vector 258 Scenario.node[35].wlan[0].radio radioChannel:vector ETV
attr interpolationmode sample-hold
attr source radioChannelChanged
attr title "Radio channel, vector"
vector 259 Scenario.node[35].wlan[0].radio receptionState:vector ETV
attr interpolationmode sample-hold
attr source receptionStateChanged
attr title "Radio reception state, vector"
vector 260 Scenario.node[35].wlan[0].mac.dcf.recoveryProcedure contentionWindowChanged:vector ETV
attr interpolationmode sample-hold
attr title "contention window, vector"
vector 261 Scenario.node[35].app[0] pingTxSeq:vector ETV
attr interpolationmode none
attr title "ping tx seq, vector"
vector 262 Scenario.node[35].app[1] pingTxSeq:vector ETV
attr interpolationmode none
attr title "ping tx seq, vector"
vector 263 Scenario.node[35].ipv4.ip packetDropNoRouteFound:vector(packetBytes) ETV
attr interpolationmode none
attr source packetDropReasonIsNoRouteFound(packetDropped)
attr title "packet drop: no route found, vector(packetBytes)"
vector 264 Scenario.node[36].wlan[0].radio radioMode:vector ETV
attr interpolationmode sample-hold
attr source radioModeChanged
attr title "Radio mode, vector"
vector 265 Scenario.node[36].wlan[0].radio radioChannel:vector ETV
attr interpolationmode sample-hold
attr source radioChannelChanged
attr title "Radio channel, vector"
vector 266 Scenario.node[36].wlan[0].radio receptionState:vector ETV
attr interpolationmode sample-hold
attr source receptionStateChanged
attr title "Radio reception state, vector"
vector 267 Scenario.node[36].wlan[0].mac.dcf.recoveryProcedure contentionWindowChanged:vector ETV
attr interpolationmode sample-hold
attr title "contention window, vector"
vector 268 Scenario.node[36].app[0] pingTxSeq:vector ETV
attr interpolationmode none
attr title "ping tx seq, vector"
vector 269 Scenario.node[36].app[1] pingTxSeq:vector ETV
attr interpolationmode none
attr title "ping tx seq, vector"
vector 270 Scenario.node[36].ipv4.ip packetDropNoRouteFound:vector(packetBytes) ETV
attr interpolationmode none
attr source packetDropReasonIsNoRouteFound(packetDropped)
attr title "packet drop: no route found, vector(packetBytes)"
vector 271 Scenario.node[37].wlan[0].radio radioMode:vector ETV
attr interpolationmode sample-hold
attr source radioModeChanged
attr title "Radio mode, vector"
vector 272 Scenario.node[37].wlan[0].radio radioChannel:vector ETV
attr interpolationmode sample-hold
attr source radioChannelChanged
attr title "Radio channel, vector"
vector 273 Scenario.node[37].wlan[0].radio receptionState:vector ETV
attr interpolationmode sample-hold
attr source receptionStateChanged
attr title "Radio reception state, vector"
vector 274 Scenario.node[37].wlan[0].mac.dcf.recoveryProcedure contentionWindowChanged:vector ETV
attr interpolationmode sample-hold
attr title "contention window, vector"
vector 275 Scenario.node[37].app[0] pingTxSeq:vector ETV
attr interpolationmode none
attr title "ping tx seq, vector"
vector 276 Scenario.node[37].app[1] pingTxSeq:vector ETV
attr interpolationmode none
attr title "ping tx seq, vector"
vector 277 Scenario.node[37].ipv4.ip packetDropNoRouteFound:vector(packetBytes) ETV
attr interpolationmode none
attr source packetDropReasonIsNoRouteFound(packetDropped)
attr title "packet drop: no route found, vector(packetBytes)"
vector 278 Scenario.node[38].wlan[0].radio radioMode:vector ETV
attr interpolationmode sample-hold
attr source radioModeChanged
attr title "Radio mode, vector"
vector 279 Scenario.node[38].wlan[0].radio radioChannel:vector ETV
attr interpolationmode sample-hold
attr source radioChannelChanged
attr title "Radio channel, vector"
vector 280 Scenario.node[38].wlan[0].radio receptionState:vector ETV
attr interpolationmode sample-hold
attr source receptionStateChanged
attr title "Radio reception state, vector"
vector 281 Scenario.node[38].wlan[0].mac.dcf.recoveryProcedure contentionWindowChanged:vector ETV
attr interpolationmode sample-hold
attr title "contention window, vector"
vector 282 Scenario.node[38].app[0] pingTxSeq:vector ETV
attr interpolationmode none
attr title "ping tx seq, vector"
vector 283 Scenario.node[38].app[1] pingTxSeq:vector ETV
attr interpolationmode none
attr title "ping tx seq, vector"
vector 284 Scenario.node[38].ipv4.ip packetDropNoRouteFound:vector(packetBytes) ETV
attr interpolationmode none
attr source packetDropReasonIsNoRouteFound(packetDropped)
attr title "packet drop: no route found, vector(packetBytes)"
vector 285 Scenario.node[39].wlan[0].radio radioMode:vector ETV
attr interpolationmode sample-hold
attr source radioModeChanged
attr title "Radio mode, vector"
vector 286 Scenario.node[39].wlan[0].radio radioChannel:vector ETV
attr interpolationmode sample-hold
attr source radioChannelChanged
attr title "Radio channel, vector"
vector 287 Scenario.node[39].wlan[0].radio receptionState:vector ETV
attr interpolationmode sample-hold
attr source receptionStateChanged
attr title "Radio reception state, vector"
vector 288 Scenario.node[39].wlan[0].mac.dcf.recoveryProcedure contentionWindowChanged:vector ETV
attr interpolationmode sample-hold
attr title "contention window, vector"
vector 289 Scenario.node[39].app[0] pingTxSeq:vector ETV
attr interpolationmode none
attr title "ping tx seq, vector"
vector 290 Scenario.node[39].app[1] pingTxSeq:vector ETV
attr interpolationmode none
attr title "ping tx seq, vector"
vector 291 Scenario.node[39].ipv4.ip packetDropNoRouteFound:vector(packetBytes) ETV
attr interpolationmode none
attr source packetDropReasonIsNoRouteFound(packetDropped)
attr title "packet drop: no route found, vector(packetBytes)"
vector 292 Scenario.node[40].wlan[0].radio radioMode:vector ETV
attr interpolationmode sample-hold
attr source radioModeChanged
attr title "Radio mode, vector"
vector 293 Scenario.node[40].wlan[0].radio radioChannel:vector ETV
attr interpolationmode sample-hold
attr source radioChannelChanged
attr title "Radio channel, vector"
vector 294 Scenario.node[40].wlan[0].radio receptionState:vector ETV
attr interpolationmode sample-hold
attr source receptionStateChanged
attr title "Radio reception state, vector"
vector 295 Scenario.node[40].wlan[0].mac.dcf.recoveryProcedure contentionWindowChanged:vector ETV
attr interpolationmode sample-hold
attr title "contention window, vector"
vector 296 Scenario.node[40].app[0] pingTxSeq:vector ETV
attr interpolationmode none
attr title "ping tx seq, vector"
vector 297 Scenario.node[40].app[1] pingTxSeq:vector ETV
attr interpolationmode none
attr title "ping tx seq, vector"
vector 298 Scenario.node[40].ipv4.ip packetDropNoRouteFound:vector(packetBytes) ETV
attr interpolationmode none
attr source packetDropReasonIsNoRouteFound(packetDropped)
attr title "packet drop: no route found, vector(packetBytes)"
vector 299 Scenario.node[41].wlan[0].radio radioMode:vector ETV
attr interpolationmode sample-hold
attr source radioModeChanged
attr title "Radio mode, vector"
vector 300 Scenario.node[41].wlan[0].radio radioChannel:vector ETV
attr interpolationmode sample-hold
attr source radioChannelChanged
attr title "Radio channel, vector"
vector 301 Scenario.node[41].wlan[0].radio receptionState:vector ETV
attr interpolationmode sample-hold
attr source receptionStateChanged
attr title "Radio reception state, vector"
vector 302 Scenario.node[41].wlan[0].mac.dcf.recoveryProcedure contentionWindowChanged:vector ETV
attr interpolationmode sample-hold
attr title "contention window, vector"
vector 303 Scenario.node[41].app[0] pingTxSeq:vector ETV
attr interpolationmode none
attr title "ping tx seq, vector"
vector 304 Scenario.node[41].app[1] pingTxSeq:vector ETV
attr interpolationmode none
attr title "ping tx seq, vector"
vector 305 Scenario.node[41].ipv4.ip packetDropNoRouteFound:vector(packetBytes) ETV
attr interpolationmode none
attr source packetDropReasonIsNoRouteFound(packetDropped)
attr title "packet drop: no route found, vector(packetBytes)"
85	53129 15 25033 25033 11 11 1 31 31 31 961
83	53144 14 25033 25033 11 11 1 0 0 0 0
82	53158 42 25033 25033 11 11 3 0 2 2 4
84	53200 14 25033 25033 11 11 1 1 1 1 1
88	53214 16272 25061 329587 11 42.92 800 1546 1546 1236800 1912092800
86	69486 7626 25047 329533 11 42.92 400 0 399 79800 21253400
87	77112 7626 25048 329534 11 42.92 400 0 399 79800 21253400
vector 306 Scenario.node[42].wlan[0].radio radioMode:vector ETV
attr interpolationmode sample-hold
attr source radioModeChanged
attr title "Radio mode, vector"
vector 307 Scenario.node[42].wlan[0].radio radioChannel:vector ETV
attr interpolationmode sample-hold
attr source radioChannelChanged
attr title "Radio channel, vector"
vector 308 Scenario.node[42].wlan[0].radio receptionState:vector ETV
attr interpolationmode sample-hold
attr source receptionStateChanged
attr title "Radio reception state, vector"
vector 309 Scenario.node[42].wlan[0].mac.dcf.recoveryProcedure contentionWindowChanged:vector ETV
attr interpolationmode sample-hold
attr title "contention window, vector"
vector 310 Scenario.node[42].app[0] pingTxSeq:vector ETV
attr interpolationmode none
attr title "ping tx seq, vector"
vector 311 Scenario.node[42].app[1] pingTxSeq:vector ETV
attr interpolationmode none
attr title "ping tx seq, vector"
vector 312 Scenario.node[42].ipv4.ip packetDropNoRouteFound:vector(packetBytes) ETV
attr interpolationmode none
attr source packetDropReasonIsNoRouteFound(packetDropped)
attr title "packet drop: no route found, vector(packetBytes)"
vector 313 Scenario.node[43].wlan[0].radio radioMode:vector ETV
attr interpolationmode sample-hold
attr source radioModeChanged
attr title "Radio mode, vector"
vector 314 Scenario.node[43].wlan[0].radio radioChannel:vector ETV
attr interpolationmode sample-hold
attr source radioChannelChanged
attr title "Radio channel, vector"
vector 315 Scenario.node[43].wlan[0].radio receptionState:vector ETV
attr interpolationmode sample-hold
attr source receptionStateChanged
attr title "Radio reception state, vector"
vector 316 Scenario.node[43].wlan[0].mac.dcf.recoveryProcedure contentionWindowChanged:vector ETV
attr interpolationmode sample-hold
attr title "contention window, vector"
vector 317 Scenario.node[43].app[0] pingTxSeq:vector ETV
attr interpolationmode none
attr title "ping tx seq, vector"
vector 318 Scenario.node[43].app[1] pingTxSeq:vector ETV
attr interpolationmode none
attr title "ping tx seq, vector"
vector 319 Scenario.node[43].ipv4.ip packetDropNoRouteFound:vector(packetBytes) ETV
attr interpolationmode none
attr source packetDropReasonIsNoRouteFound(packetDropped)
attr title "packet drop: no route found, vector(packetBytes)"
vector 320 Scenario.node[44].wlan[0].radio radioMode:vector ETV
attr interpolationmode sample-hold
attr source radioModeChanged
attr title "Radio mode, vector"
vector 321 Scenario.node[44].wlan[0].radio radioChannel:vector ETV
attr interpolationmode sample-hold
attr source radioChannelChanged
attr title "Radio channel, vector"
vector 322 Scenario.node[44].wlan[0].radio receptionState:vector ETV
attr interpolationmode sample-hold
attr source receptionStateChanged
attr title "Radio reception state, vector"
vector 323 Scenario.node[44].wlan[0].mac.dcf.recoveryProcedure contentionWindowChanged:vector ETV
attr interpolationmode sample-hold
attr title "contention window, vector"
vector 324 Scenario.node[44].app[0] pingTxSeq:vector ETV
attr interpolationmode none
attr title "ping tx seq, vector"
vector 325 Scenario.node[44].app[1] pingTxSeq:vector ETV
attr interpolationmode none
attr title "ping tx seq, vector"
vector 326 Scenario.node[44].ipv4.ip packetDropNoRouteFound:vector(packetBytes) ETV
attr interpolationmode none
attr source packetDropReasonIsNoRouteFound(packetDropped)
attr title "packet drop: no route found, vector(packetBytes)"
vector 327 Scenario.node[45].wlan[0].radio radioMode:vector ETV
attr interpolationmode sample-hold
attr source radioModeChanged
attr title "Radio mode, vector"
vector 328 Scenario.node[45].wlan[0].radio radioChannel:vector ETV
attr interpolationmode sample-hold
attr source radioChannelChanged
attr title "Radio channel, vector"
vector 329 Scenario.node[45].wlan[0].radio receptionState:vector ETV
attr interpolationmode sample-hold
attr source receptionStateChanged
attr title "Radio reception state, vector"
vector 330 Scenario.node[45].wlan[0].mac.dcf.recoveryProcedure contentionWindowChanged:vector ETV
attr interpolationmode sample-hold
attr title "contention window, vector"
vector 331 Scenario.node[45].app[0] pingTxSeq:vector ETV
attr interpolationmode none
attr title "ping tx seq, vector"
vector 332 Scenario.node[45].app[1] pingTxSeq:vector ETV
attr interpolationmode none
attr title "ping tx seq, vector"
vector 333 Scenario.node[45].ipv4.ip packetDropNoRouteFound:vector(packetBytes) ETV
attr interpolationmode none
attr source packetDropReasonIsNoRouteFound(packetDropped)
attr title "packet drop: no route found, vector(packetBytes)"
vector 334 Scenario.node[46].wlan[0].radio radioMode:vector ETV
attr interpolationmode sample-hold
attr source radioModeChanged
attr title "Radio mode, vector"
vector 335 Scenario.node[46].wlan[0].radio radioChannel:vector ETV
attr interpolationmode sample-hold
attr source radioChannelChanged
attr title "Radio channel, vector"
vector 336 Scenario.node[46].wlan[0].radio receptionState:vector ETV
attr interpolationmode sample-hold
attr source receptionStateChanged
attr title "Radio reception state, vector"
vector 337 Scenario.node[46].wlan[0].mac.dcf.recoveryProcedure contentionWindowChanged:vector ETV
attr interpolationmode sample-hold
attr title "contention window, vector"
vector 338 Scenario.node[46].app[0] pingTxSeq:vector ETV
attr interpolationmode none
attr title "ping tx seq, vector"
vector 339 Scenario.node[46].app[1] pingTxSeq:vector ETV
attr interpolationmode none
attr title "ping tx seq, vector"
vector 340 Scenario.node[46].ipv4.ip packetDropNoRouteFound:vector(packetBytes) ETV
attr interpolationmode none
attr source packetDropReasonIsNoRouteFound(packetDropped)
attr title "packet drop: no route found, vector(packetBytes)"
vector 341 Scenario.node[47].wlan[0].radio radioMode:vector ETV
attr interpolationmode sample-hold
attr source radioModeChanged
attr title "Radio mode, vector"
vector 342 Scenario.node[47].wlan[0].radio radioChannel:vector ETV
attr interpolationmode sample-hold
attr source radioChannelChanged
attr title "Radio channel, vector"
vector 343 Scenario.node[47].wlan[0].radio receptionState:vector ETV
attr interpolationmode sample-hold
attr source receptionStateChanged
attr title "Radio reception state, vector"
vector 344 Scenario.node[47].wlan[0].mac.dcf.recoveryProcedure contentionWindowChanged:vector ETV
attr interpolationmode sample-hold
attr title "contention window, vector"
vector 345 Scenario.node[48].wlan[0].radio radioMode:vector ETV
attr interpolationmode sample-hold
attr source radioModeChanged
attr title "Radio mode, vector"
vector 346 Scenario.node[48].wlan[0].radio radioChannel:vector ETV
attr interpolationmode sample-hold
attr source radioChannelChanged
attr title "Radio channel, vector"
vector 347 Scenario.node[48].wlan[0].radio receptionState:vector ETV
attr interpolationmode sample-hold
attr source receptionStateChanged
attr title "Radio reception state, vector"
vector 348 Scenario.node[48].wlan[0].mac.dcf.recoveryProcedure contentionWindowChanged:vector ETV
attr interpolationmode sample-hold
attr title "contention window, vector"
vector 349 Scenario.node[47].app[0] pingTxSeq:vector ETV
attr interpolationmode none
attr title "ping tx seq, vector"
vector 350 Scenario.node[47].app[1] pingTxSeq:vector ETV
attr interpolationmode none
attr title "ping tx seq, vector"
vector 351 Scenario.node[48].app[0] pingTxSeq:vector ETV
attr interpolationmode none
attr title "ping tx seq, vector"
vector 352 Scenario.node[48].app[1] pingTxSeq:vector ETV
attr interpolationmode none
attr title "ping tx seq, vector"
vector 353 Scenario.node[47].ipv4.ip packetDropNoRouteFound:vector(packetBytes) ETV
attr interpolationmode none
attr source packetDropReasonIsNoRouteFound(packetDropped)
attr title "packet drop: no route found, vector(packetBytes)"
vector 354 Scenario.node[48].ipv4.ip packetDropNoRouteFound:vector(packetBytes) ETV
attr interpolationmode none
attr source packetDropReasonIsNoRouteFound(packetDropped)
attr title "packet drop: no route found, vector(packetBytes)"
vector 355 Scenario.node[49].wlan[0].radio radioMode:vector ETV
attr interpolationmode sample-hold
attr source radioModeChanged
attr title "Radio mode, vector"
vector 356 Scenario.node[49].wlan[0].radio radioChannel:vector ETV
attr interpolationmode sample-hold
attr source radioChannelChanged
attr title "Radio channel, vector"
vector 357 Scenario.node[49].wlan[0].radio receptionState:vector ETV
attr interpolationmode sample-hold
attr source receptionStateChanged
attr title "Radio reception state, vector"
vector 358 Scenario.node[49].wlan[0].mac.dcf.recoveryProcedure contentionWindowChanged:vector ETV
attr interpolationmode sample-hold
attr title "contention window, vector"
vector 359 Scenario.node[49].app[0] pingTxSeq:vector ETV
attr interpolationmode none
attr title "ping tx seq, vector"
vector 360 Scenario.node[49].app[1] pingTxSeq:vector ETV
attr interpolationmode none
attr title "ping tx seq, vector"
vector 361 Scenario.node[49].ipv4.ip packetDropNoRouteFound:vector(packetBytes) ETV
attr interpolationmode none
attr source packetDropReasonIsNoRouteFound(packetDropped)
attr title "packet drop: no route found, vector(packetBytes)"
vector 362 Scenario.node[50].wlan[0].radio radioMode:vector ETV
attr interpolationmode sample-hold
attr source radioModeChanged
attr title "Radio mode, vector"
vector 363 Scenario.node[50].wlan[0].radio radioChannel:vector ETV
attr interpolationmode sample-hold
attr source radioChannelChanged
attr title "Radio channel, vector"
vector 364 Scenario.node[50].wlan[0].radio receptionState:vector ETV
attr interpolationmode sample-hold
attr source receptionStateChanged
attr title "Radio reception state, vector"
vector 365 Scenario.node[50].wlan[0].mac.dcf.recoveryProcedure contentionWindowChanged:vector ETV
attr interpolationmode sample-hold
attr title "contention window, vector"
vector 366 Scenario.node[50].app[0] pingTxSeq:vector ETV
attr interpolationmode none
attr title "ping tx seq, vector"
vector 367 Scenario.node[50].app[1] pingTxSeq:vector ETV
attr interpolationmode none
attr title "ping tx seq, vector"
vector 368 Scenario.node[50].ipv4.ip packetDropNoRouteFound:vector(packetBytes) ETV
attr interpolationmode none
attr source packetDropReasonIsNoRouteFound(packetDropped)
attr title "packet drop: no route found, vector(packetBytes)"
vector 369 Scenario.node[51].wlan[0].radio radioMode:vector ETV
attr interpolationmode sample-hold
attr source radioModeChanged
attr title "Radio mode, vector"
vector 370 Scenario.node[51].wlan[0].radio radioChannel:vector ETV
attr interpolationmode sample-hold
attr source radioChannelChanged
attr title "Radio channel, vector"
vector 371 Scenario.node[51].wlan[0].radio receptionState:vector ETV
attr interpolationmode sample-hold
attr source receptionStateChanged
attr title "Radio reception state, vector"
vector 372 Scenario.node[51].wlan[0].mac.dcf.recoveryProcedure contentionWindowChanged:vector ETV
attr interpolationmode sample-hold
attr title "contention window, vector"
vector 373 Scenario.node[51].app[0] pingTxSeq:vector ETV
attr interpolationmode none
attr title "ping tx seq, vector"
vector 374 Scenario.node[51].app[1] pingTxSeq:vector ETV
attr interpolationmode none
attr title "ping tx seq, vector"
vector 375 Scenario.node[51].ipv4.ip packetDropNoRouteFound:vector(packetBytes) ETV
attr interpolationmode none
attr source packetDropReasonIsNoRouteFound(packetDropped)
attr title "packet drop: no route found, vector(packetBytes)"
vector 376 Scenario.node[52].wlan[0].radio radioMode:vector ETV
attr interpolationmode sample-hold
attr source radioModeChanged
attr title "Radio mode, vector"
vector 377 Scenario.node[52].wlan[0].radio radioChannel:vector ETV
attr interpolationmode sample-hold
attr source radioChannelChanged
attr title "Radio channel, vector"
vector 378 Scenario.node[52].wlan[0].radio receptionState:vector ETV
attr interpolationmode sample-hold
attr source receptionStateChanged
attr title "Radio reception state, vector"
vector 379 Scenario.node[52].wlan[0].mac.dcf.recoveryProcedure contentionWindowChanged:vector ETV
attr interpolationmode sample-hold
attr title "contention window, vector"
vector 380 Scenario.node[52].app[0] pingTxSeq:vector ETV
attr interpolationmode none
attr title "ping tx seq, vector"
vector 381 Scenario.node[52].app[1] pingTxSeq:vector ETV
attr interpolationmode none
attr title "ping tx seq, vector"
vector 382 Scenario.node[52].ipv4.ip packetDropNoRouteFound:vector(packetBytes) ETV
attr interpolationmode none
attr source packetDropReasonIsNoRouteFound(packetDropped)
attr title "packet drop: no route found, vector(packetBytes)"
vector 383 Scenario.node[53].wlan[0].radio radioMode:vector ETV
attr interpolationmode sample-hold
attr source radioModeChanged
attr title "Radio mode, vector"
vector 384 Scenario.node[53].wlan[0].radio radioChannel:vector ETV
attr interpolationmode sample-hold
attr source radioChannelChanged
attr title "Radio channel, vector"
vector 385 Scenario.node[53].wlan[0].radio receptionState:vector ETV
attr interpolationmode sample-hold
attr source receptionStateChanged
attr title "Radio reception state, vector"
vector 386 Scenario.node[53].wlan[0].mac.dcf.recoveryProcedure contentionWindowChanged:vector ETV
attr interpolationmode sample-hold
attr title "contention window, vector"
vector 387 Scenario.node[53].app[0] pingTxSeq:vector ETV
attr interpolationmode none
attr title "ping tx seq, vector"
vector 388 Scenario.node[53].app[1] pingTxSeq:vector ETV
attr interpolationmode none
attr title "ping tx seq, vector"
vector 389 Scenario.node[53].ipv4.ip packetDropNoRouteFound:vector(packetBytes) ETV
attr interpolationmode none
attr source packetDropReasonIsNoRouteFound(packetDropped)
attr title "packet drop: no route found, vector(packetBytes)"
vector 390 Scenario.node[54].wlan[0].radio radioMode:vector ETV
attr interpolationmode sample-hold
attr source radioModeChanged
attr title "Radio mode, vector"
vector 391 Scenario.node[54].wlan[0].radio radioChannel:vector ETV
attr interpolationmode sample-hold
attr source radioChannelChanged
attr title "Radio channel, vector"
vector 392 Scenario.node[54].wlan[0].radio receptionState:vector ETV
attr interpolationmode sample-hold
attr source receptionStateChanged
attr title "Radio reception state, vector"
vector 393 Scenario.node[54].wlan[0].mac.dcf.recoveryProcedure contentionWindowChanged:vector ETV
attr interpolationmode sample-hold
attr title "contention window, vector"
vector 394 Scenario.node[54].app[0] pingTxSeq:vector ETV
attr interpolationmode none
attr title "ping tx seq, vector"
vector 395 Scenario.node[54].app[1] pingTxSeq:vector ETV
attr interpolationmode none
attr title "ping tx seq, vector"
vector 396 Scenario.node[54].ipv4.ip packetDropNoRouteFound:vector(packetBytes) ETV
attr interpolationmode none
attr source packetDropReasonIsNoRouteFound(packetDropped)
attr title "packet drop: no route found, vector(packetBytes)"
vector 397 Scenario.node[55].wlan[0].radio radioMode:vector ETV
attr interpolationmode sample-hold
attr source radioModeChanged
attr title "Radio mode, vector"
vector 398 Scenario.node[55].wlan[0].radio radioChannel:vector ETV
attr interpolationmode sample-hold
attr source radioChannelChanged
attr title "Radio channel, vector"
vector 399 Scenario.node[55].wlan[0].radio receptionState:vector ETV
attr interpolationmode sample-hold
attr source receptionStateChanged
attr title "Radio reception state, vector"
vector 400 Scenario.node[55].wlan[0].mac.dcf.recoveryProcedure contentionWindowChanged:vector ETV
attr interpolationmode sample-hold
attr title "contention window, vector"
vector 401 Scenario.node[55].app[0] pingTxSeq:vector ETV
attr interpolationmode none
attr title "ping tx seq, vector"
vector 402 Scenario.node[55].app[1] pingTxSeq:vector ETV
attr interpolationmode none
attr title "ping tx seq, vector"
vector 403 Scenario.node[55].ipv4.ip packetDropNoRouteFound:vector(packetBytes) ETV
attr interpolationmode none
attr source packetDropReasonIsNoRouteFound(packetDropped)
attr title "packet drop: no route found, vector(packetBytes)"
vector 404 Scenario.node[56].wlan[0].radio radioMode:vector ETV
attr interpolationmode sample-hold
attr source radioModeChanged
attr title "Radio mode, vector"
vector 405 Scenario.node[56].wlan[0].radio radioChannel:vector ETV
attr interpolationmode sample-hold
attr source radioChannelChanged
attr title "Radio channel, vector"
vector 406 Scenario.node[56].wlan[0].radio receptionState:vector ETV
attr interpolationmode sample-hold
attr source receptionStateChanged
attr title "Radio reception state, vector"
vector 407 Scenario.node[56].wlan[0].mac.dcf.recoveryProcedure contentionWindowChanged:vector ETV
attr interpolationmode sample-hold
attr title "contention window, vector"
vector 408 Scenario.node[56].app[0] pingTxSeq:vector ETV
attr interpolationmode none
attr title "ping tx seq, vector"
vector 409 Scenario.node[56].app[1] pingTxSeq:vector ETV
attr interpolationmode none
attr title "ping tx seq, vector"
vector 410 Scenario.node[56].ipv4.ip packetDropNoRouteFound:vector(packetBytes) ETV
attr interpolationmode none
attr source packetDropReasonIsNoRouteFound(packetDropped)
attr title "packet drop: no route found, vector(packetBytes)"
vector 411 Scenario.node[57].wlan[0].radio radioMode:vector ETV
attr interpolationmode sample-hold
attr source radioModeChanged
attr title "Radio mode, vector"
vector 412 Scenario.node[57].wlan[0].radio radioChannel:vector ETV
attr interpolationmode sample-hold
attr source radioChannelChanged
attr title "Radio channel, vector"
vector 413 Scenario.node[57].wlan[0].radio receptionState:vector ETV
attr interpolationmode sample-hold
attr source receptionStateChanged
attr title "Radio reception state, vector"
vector 414 Scenario.node[57].wlan[0].mac.dcf.recoveryProcedure contentionWindowChanged:vector ETV
attr interpolationmode sample-hold
attr title "contention window, vector"
vector 415 Scenario.node[57].app[0] pingTxSeq:vector ETV
attr interpolationmode none
attr title "ping tx seq, vector"
vector 416 Scenario.node[57].app[1] pingTxSeq:vector ETV
attr interpolationmode none
attr title "ping tx seq, vector"
vector 417 Scenario.node[57].ipv4.ip packetDropNoRouteFound:vector(packetBytes) ETV
attr interpolationmode none
attr source packetDropReasonIsNoRouteFound(packetDropped)
attr title "packet drop: no route found, vector(packetBytes)"
vector 418 Scenario.node[58].wlan[0].radio radioMode:vector ETV
attr interpolationmode sample-hold
attr source radioModeChanged
attr title "Radio mode, vector"
vector 419 Scenario.node[58].wlan[0].radio radioChannel:vector ETV
attr interpolationmode sample-hold
attr source radioChannelChanged
attr title "Radio channel, vector"
vector 420 Scenario.node[58].wlan[0].radio receptionState:vector ETV
attr interpolationmode sample-hold
attr source receptionStateChanged
attr title "Radio reception state, vector"
vector 421 Scenario.node[58].wlan[0].mac.dcf.recoveryProcedure contentionWindowChanged:vector ETV
attr interpolationmode sample-hold
attr title "contention window, vector"
vector 422 Scenario.node[58].app[0] pingTxSeq:vector ETV
attr interpolationmode none
attr title "ping tx seq, vector"
vector 423 Scenario.node[58].app[1] pingTxSeq:vector ETV
attr interpolationmode none
attr title "ping tx seq, vector"
vector 424 Scenario.node[58].ipv4.ip packetDropNoRouteFound:vector(packetBytes) ETV
attr interpolationmode none
attr source packetDropReasonIsNoRouteFound(packetDropped)
attr title "packet drop: no route found, vector(packetBytes)"
vector 425 Scenario.node[59].wlan[0].radio radioMode:vector ETV
attr interpolationmode sample-hold
attr source radioModeChanged
attr title "Radio mode, vector"
vector 426 Scenario.node[59].wlan[0].radio radioChannel:vector ETV
attr interpolationmode sample-hold
attr source radioChannelChanged
attr title "Radio channel, vector"
vector 427 Scenario.node[59].wlan[0].radio receptionState:vector ETV
attr interpolationmode sample-hold
attr source receptionStateChanged
attr title "Radio reception state, vector"
vector 428 Scenario.node[59].wlan[0].mac.dcf.recoveryProcedure contentionWindowChanged:vector ETV
attr interpolationmode sample-hold
attr title "contention window, vector"
vector 429 Scenario.node[59].app[0] pingTxSeq:vector ETV
attr interpolationmode none
attr title "ping tx seq, vector"
vector 430 Scenario.node[59].app[1] pingTxSeq:vector ETV
attr interpolationmode none
attr title "ping tx seq, vector"
vector 431 Scenario.node[59].ipv4.ip packetDropNoRouteFound:vector(packetBytes) ETV
attr interpolationmode none
attr source packetDropReasonIsNoRouteFound(packetDropped)
attr title "packet drop: no route found, vector(packetBytes)"
vector 432 Scenario.node[60].wlan[0].radio radioMode:vector ETV
attr interpolationmode sample-hold
attr source radioModeChanged
attr title "Radio mode, vector"
vector 433 Scenario.node[60].wlan[0].radio radioChannel:vector ETV
attr interpolationmode sample-hold
attr source radioChannelChanged
attr title "Radio channel, vector"
vector 434 Scenario.node[60].wlan[0].radio receptionState:vector ETV
attr interpolationmode sample-hold
attr source receptionStateChanged
attr title "Radio reception state, vector"
vector 435 Scenario.node[60].wlan[0].mac.dcf.recoveryProcedure contentionWindowChanged:vector ETV
attr interpolationmode sample-hold
attr title "contention window, vector"
vector 436 Scenario.node[60].app[0] pingTxSeq:vector ETV
attr interpolationmode none
attr title "ping tx seq, vector"
vector 437 Scenario.node[60].app[1] pingTxSeq:vector ETV
attr interpolationmode none
attr title "ping tx seq, vector"
vector 438 Scenario.node[60].ipv4.ip packetDropNoRouteFound:vector(packetBytes) ETV
attr interpolationmode none
attr source packetDropReasonIsNoRouteFound(packetDropped)
attr title "packet drop: no route found, vector(packetBytes)"
vector 439 Scenario.node[61].wlan[0].radio radioMode:vector ETV
attr interpolationmode sample-hold
attr source radioModeChanged
attr title "Radio mode, vector"
vector 440 Scenario.node[61].wlan[0].radio radioChannel:vector ETV
attr interpolationmode sample-hold
attr source radioChannelChanged
attr title "Radio channel, vector"
vector 441 Scenario.node[61].wlan[0].radio receptionState:vector ETV
attr interpolationmode sample-hold
attr source receptionStateChanged
attr title "Radio reception state, vector"
vector 442 Scenario.node[61].wlan[0].mac.dcf.recoveryProcedure contentionWindowChanged:vector ETV
attr interpolationmode sample-hold
attr title "contention window, vector"
vector 443 Scenario.node[61].app[0] pingTxSeq:vector ETV
attr interpolationmode none
attr title "ping tx seq, vector"
vector 444 Scenario.node[61].app[1] pingTxSeq:vector ETV
attr interpolationmode none
attr title "ping tx seq, vector"
vector 445 Scenario.node[61].ipv4.ip packetDropNoRouteFound:vector(packetBytes) ETV
attr interpolationmode none
attr source packetDropReasonIsNoRouteFound(packetDropped)
attr title "packet drop: no route found, vector(packetBytes)"
vector 446 Scenario.node[62].wlan[0].radio radioMode:vector ETV
attr interpolationmode sample-hold
attr source radioModeChanged
attr title "Radio mode, vector"
vector 447 Scenario.node[62].wlan[0].radio radioChannel:vector ETV
attr interpolationmode sample-hold
attr source radioChannelChanged
attr title "Radio channel, vector"
vector 448 Scenario.node[62].wlan[0].radio receptionState:vector ETV
attr interpolationmode sample-hold
attr source receptionStateChanged
attr title "Radio reception state, vector"
vector 449 Scenario.node[62].wlan[0].mac.dcf.recoveryProcedure contentionWindowChanged:vector ETV
attr interpolationmode sample-hold
attr title "contention window, vector"
vector 450 Scenario.node[62].app[0] pingTxSeq:vector ETV
attr interpolationmode none
attr title "ping tx seq, vector"
vector 451 Scenario.node[62].app[1] pingTxSeq:vector ETV
attr interpolationmode none
attr title "ping tx seq, vector"
vector 452 Scenario.node[62].ipv4.ip packetDropNoRouteFound:vector(packetBytes) ETV
attr interpolationmode none
attr source packetDropReasonIsNoRouteFound(packetDropped)
attr title "packet drop: no route found, vector(packetBytes)"
vector 453 Scenario.node[63].wlan[0].radio radioMode:vector ETV
attr interpolationmode sample-hold
attr source radioModeChanged
attr title "Radio mode, vector"
vector 454 Scenario.node[63].wlan[0].radio radioChannel:vector ETV
attr interpolationmode sample-hold
attr source radioChannelChanged
attr title "Radio channel, vector"
vector 455 Scenario.node[63].wlan[0].radio receptionState:vector ETV
attr interpolationmode sample-hold
attr source receptionStateChanged
attr title "Radio reception state, vector"
vector 456 Scenario.node[63].wlan[0].mac.dcf.recoveryProcedure contentionWindowChanged:vector ETV
attr interpolationmode sample-hold
attr title "contention window, vector"
vector 457 Scenario.node[63].app[0] pingTxSeq:vector ETV
attr interpolationmode none
attr title "ping tx seq, vector"
vector 458 Scenario.node[63].app[1] pingTxSeq:vector ETV
attr interpolationmode none
attr title "ping tx seq, vector"
vector 459 Scenario.node[63].ipv4.ip packetDropNoRouteFound:vector(packetBytes) ETV
attr interpolationmode none
attr source packetDropReasonIsNoRouteFound(packetDropped)
attr title "packet drop: no route found, vector(packetBytes)"
vector 460 Scenario.node[64].wlan[0].radio radioMode:vector ETV
attr interpolationmode sample-hold
attr source radioModeChanged
attr title "Radio mode, vector"
vector 461 Scenario.node[64].wlan[0].radio radioChannel:vector ETV
attr interpolationmode sample-hold
attr source radioChannelChanged
attr title "Radio channel, vector"
vector 462 Scenario.node[64].wlan[0].radio receptionState:vector ETV
attr interpolationmode sample-hold
attr source receptionStateChanged
attr title "Radio reception state, vector"
vector 463 Scenario.node[64].wlan[0].mac.dcf.recoveryProcedure contentionWindowChanged:vector ETV
attr interpolationmode sample-hold
attr title "contention window, vector"
vector 464 Scenario.node[64].app[0] pingTxSeq:vector ETV
attr interpolationmode none
attr title "ping tx seq, vector"
vector 465 Scenario.node[64].app[1] pingTxSeq:vector ETV
attr interpolationmode none
attr title "ping tx seq, vector"
vector 466 Scenario.node[64].ipv4.ip packetDropNoRouteFound:vector(packetBytes) ETV
attr interpolationmode none
attr source packetDropReasonIsNoRouteFound(packetDropped)
[...]
269	13355104 4014 1838679 2302017 106.04 119.96 175 863 1037 166250 158384100
270	13359118 8302 1838793 2302150 106.04 119.96 350 1546 1546 541100 836540600
275	13367420 4022 1837394 2303400 106 120 176 850 1025 165000 155141800
276	13371442 4022 1837395 2303401 106 120 176 850 1025 165000 155141800
277	13375464 8344 1837519 2303534 106 120 352 1546 1546 544192 841320832
282	13383808 3989 1838680 2302018 106.04 119.96 175 838 1012 161875 150180975
283	13387797 3989 1838681 2302019 106.04 119.96 175 838 1012 161875 150180975
284	13391786 8302 1838795 2302152 106.04 119.96 350 1546 1546 541100 836540600
289	13400088 3997 1837396 2303402 106 120 176 825 1000 160600 147001800
290	13404085 3997 1837397 2303403 106 120 176 825 1000 160600 147001800
291	13408082 8344 1837521 2303536 106 120 352 1546 1546 544192 841320832
296	13416426 3976 1838682 2302020 106.04 119.96 175 813 987 157500 142196600
297	13420402 3976 1838683 2302021 106.04 119.96 175 813 987 157500 142196600
298	13424378 8302 1838797 2302154 106.04 119.96 350 1546 1546 541100 836540600
310	13432680 3976 1838684 2302022 106.04 119.96 175 788 962 153125 134430975
311	13436656 3976 1838685 2302023 106.04 119.96 175 788 962 153125 134430975
312	13440632 8302 1838799 2302156 106.04 119.96 350 1546 1546 541100 836540600
317	13448934 3996 1837398 2303404 106 120 176 775 950 151800 131381800
318	13452930 3996 1837399 2303405 106 120 176 775 950 151800 131381800
319	13456926 8344 1837523 2303538 106 120 352 1546 1546 544192 841320832
338	13465270 3976 1838686 2302024 106.04 119.96 175 738 912 144375 119555975
339	13469246 3976 1838687 2302025 106.04 119.96 175 738 912 144375 119555975
340	13473222 8302 1838801 2302158 106.04 119.96 350 1546 1546 541100 836540600
349	13481524 3976 1838688 2302026 106.04 119.96 175 713 887 140000 112446600
350	13485500 3976 1838689 2302027 106.04 119.96 175 713 887 140000 112446600
353	13489476 8302 1838803 2302160 106.04 119.96 350 1546 1546 541100 836540600
359	13497778 3996 1837400 2303406 106 120 176 700 875 138600 109601800
360	13501774 3996 1837401 2303407 106 120 176 700 875 138600 109601800
361	13505770 8344 1837525 2303540 106 120 352 1546 1546 544192 841320832
373	13514114 3996 1837402 2303408 106 120 176 675 850 134200 102781800
374	13518110 3996 1837403 2303409 106 120 176 675 850 134200 102781800
375	13522106 8344 1837527 2303542 106 120 352 1546 1546 544192 841320832
380	13530450 3976 1838692 2302028 106.04 119.96 175 663 837 131250 98884100
381	13534426 3976 1838693 2302029 106.04 119.96 175 663 837 131250 98884100
382	13538402 8302 1838807 2302162 106.04 119.96 350 1546 1546 541100 836540600
401	13546704 3996 1837406 2303410 106 120 176 625 800 125400 89801800
402	13550700 3996 1837407 2303411 106 120 176 625 800 125400 89801800
403	13554696 8344 1837531 2303544 106 120 352 1546 1546 544192 841320832
404	13563040 43812 2064936 2303488 113 120 2002 1 2 3003 5005
406	13606852 43812 2064936 2303488 113 120 2002 0 1 1001 1001
408	13650664 3976 1838694 2302030 106.04 119.96 175 613 787 122500 86196600
409	13654640 3976 1838695 2302031 106.04 119.96 175 613 787 122500 86196600
410	13658616 8302 1838809 2302164 106.04 119.96 350 1546 1546 541100 836540600
415	13666918 3996 1837408 2303412 106 120 176 600 775 121000 83641800
416	13670914 3996 1837409 2303413 106 120 176 600 775 121000 83641800
417	13674910 8344 1837533 2303546 106 120 352 1546 1546 544192 841320832
422	13683254 3976 1838696 2302032 106.04 119.96 175 588 762 118125 80180975
423	13687230 3976 1838697 2302033 106.04 119.96 175 588 762 118125 80180975
424	13691206 8302 1838811 2302166 106.04 119.96 350 1546 1546 541100 836540600
429	13699508 3996 1837410 2303414 106 120 176 575 750 116600 77701800
430	13703504 3996 1837411 2303415 106 120 176 575 750 116600 77701800
431	13707500 8344 1837535 2303548 106 120 352 1546 1546 544192 841320832
443	13715844 3996 1837412 2303416 106 120 176 550 725 112200 71981800
444	13719840 3996 1837413 2303417 106 120 176 550 725 112200 71981800
445	13723836 8344 1837537 2303550 106 120 352 1546 1546 544192 841320832
450	13732180 3976 1838700 2302034 106.04 119.96 175 538 712 109375 68805975
451	13736156 3976 1838701 2302035 106.04 119.96 175 538 712 109375 68805975
452	13740132 8302 1838815 2302168 106.04 119.96 350 1546 1546 541100 836540600
457	13748434 3996 1837414 2303418 106 120 176 525 700 107800 66481800
458	13752430 3996 1837415 2303419 106 120 176 525 700 107800 66481800
459	13756426 8344 1837539 2303552 106 120 352 1546 1546 544192 841320832
464	13764770 3976 1838702 2302036 106.04 119.96 175 513 687 105000 63446600
465	13768746 3976 1838703 2302037 106.04 119.96 175 513 687 105000 63446600
466	13772722 8302 1838817 2302170 106.04 119.96 350 1546 1546 541100 836540600
471	13781024 3996 1837416 2303420 106 120 176 500 675 103400 61201800
472	13785020 3996 1837417 2303421 106 120 176 500 675 103400 61201800
473	13789016 8344 1837541 2303554 106 120 352 1546 1546 544192 841320832
485	13797360 3996 1837418 2303422 106 120 176 475 650 99000 56141800
486	13801356 3996 1837419 2303423 106 120 176 475 650 99000 56141800
487	13805352 8344 1837543 2303556 106 120 352 1546 1546 544192 841320832
492	13813696 3976 1838704 2302038 106.04 119.96 175 463 637 96250 53384100
493	13817672 3976 1838705 2302039 106.04 119.96 175 463 637 96250 53384100
494	13821648 8302 1838819 2302172 106.04 119.96 350 1546 1546 541100 836540600
499	13829950 3996 1837420 2303424 106 120 176 450 625 94600 51301800
500	13833946 3996 1837421 2303425 106 120 176 450 625 94600 51301800
501	13837942 8344 1837545 2303558 106 120 352 1546 1546 544192 841320832
513	13846286 3996 1837422 2303426 106 120 176 425 600 90200 46681800
514	13850282 3996 1837423 2303427 106 120 176 425 600 90200 46681800
515	13854278 8344 1837547 2303560 106 120 352 1546 1546 544192 841320832
516	13862622 56296 1998935 2303324 111.003 119.998 2572 1 2 3858 6430
518	13918918 56296 1998935 2303324 111.003 119.998 2572 0 1 1286 1286
520	13975214 3976 1838706 2302040 106.04 119.96 175 413 587 87500 44196600
521	13979190 3976 1838707 2302041 106.04 119.96 175 413 587 87500 44196600
522	13983166 8302 1838821 2302174 106.04 119.96 350 1546 1546 541100 836540600
527	13991468 3996 1837424 2303428 106 120 176 400 575 85800 42281800
528	13995464 3996 1837425 2303429 106 120 176 400 575 85800 42281800
529	13999460 8344 1837549 2303562 106 120 352 1546 1546 544192 841320832
534	14007804 3976 1838708 2302042 106.04 119.96 175 388 562 83125 39930975
535	14011780 3976 1838709 2302043 106.04 119.96 175 388 562 83125 39930975
536	14015756 8302 1838823 2302176 106.04 119.96 350 1546 1546 541100 836540600
537	14024058 87684 1836865 2303240 105.981 119.995 4006 1 2 6009 10015
539	14111742 87684 1836865 2303240 105.981 119.995 4006 0 1 2003 2003
541	14199426 3996 1837426 2303430 106 120 176 375 550 81400 38101800
542	14203422 3996 1837427 2303431 106 120 176 375 550 81400 38101800
543	14207418 8344 1837551 2303564 106 120 352 1546 1546 544192 841320832
548	14215762 3976 1838710 2302044 106.04 119.96 175 363 537 78750 35884100
549	14219738 3976 1838711 2302045 106.04 119.96 175 363 537 78750 35884100
550	14223714 8302 1838825 2302178 106.04 119.96 350 1546 1546 541100 836540600
551	14232016 87676 1836991 2303484 105.986 120 4006 1 2 6009 10015
553	14319692 87676 1836991 2303484 105.986 120 4006 0 1 2003 2003
555	14407368 3996 1837428 2303432 106 120 176 350 525 77000 34141800
556	14411364 3996 1837429 2303433 106 120 176 350 525 77000 34141800
557	14415360 8344 1837553 2303566 106 120 352 1546 1546 544192 841320832
562	14423704 3976 1838712 2302046 106.04 119.96 175 338 512 74375 32055975
563	14427680 3976 1838713 2302047 106.04 119.96 175 338 512 74375 32055975
564	14431656 8302 1838827 2302180 106.04 119.96 350 1546 1546 541100 836540600
569	14439958 3996 1837430 2303434 106 120 176 325 500 72600 30401800
570	14443954 3996 1837431 2303435 106 120 176 325 500 72600 30401800
571	14447950 8344 1837555 2303568 106 120 352 1546 1546 544192 841320832
576	14456294 3976 1838714 2302048 106.04 119.96 175 313 487 70000 28446600
577	14460270 3976 1838715 2302049 106.04 119.96 175 313 487 70000 28446600
578	14464246 8302 1838829 2302182 106.04 119.96 350 1546 1546 541100 836540600
583	14472548 3996 1837432 2303436 106 120 176 300 475 68200 26881800
584	14476544 3996 1837433 2303437 106 120 176 300 475 68200 26881800
585	14480540 8344 1837557 2303570 106 120 352 1546 1546 544192 841320832
590	14488884 3976 1838716 2302050 106.04 119.96 175 288 462 65625 25055975
591	14492860 3976 1838717 2302051 106.04 119.96 175 288 462 65625 25055975
592	14496836 8302 1838831 2302184 106.04 119.96 350 1546 1546 541100 836540600
597	14505138 3996 1837434 2303438 106 120 176 275 450 63800 23581800
598	14509134 3996 1837435 2303439 106 120 176 275 450 63800 23581800
599	14513130 8344 1837559 2303572 106 120 352 1546 1546 544192 841320832
604	14521474 3976 1838718 2302052 106.04 119.96 175 263 437 61250 21884100
605	14525450 3976 1838719 2302053 106.04 119.96 175 263 437 61250 21884100
606	14529426 8302 1838833 2302186 106.04 119.96 350 1546 1546 541100 836540600
607	14537728 87552 1837730 2303348 106.006 119.999 4000 1 2 6000 10000
609	14625280 87552 1837730 2303348 106.006 119.999 4000 0 1 2000 2000
611	14712832 3996 1837436 2303440 106 120 176 250 425 59400 20501800
612	14716828 3996 1837437 2303441 106 120 176 250 425 59400 20501800
613	14720824 8344 1837561 2303574 106 120 352 1546 1546 544192 841320832
618	14729168 3976 1838720 2302054 106.04 119.96 175 238 412 56875 18930975
619	14733144 3976 1838721 2302055 106.04 119.96 175 238 412 56875 18930975
620	14737120 8302 1838835 2302188 106.04 119.96 350 1546 1546 541100 836540600
625	14745422 3996 1837438 2303442 106 120 176 225 400 55000 17641800
626	14749418 3996 1837439 2303443 106 120 176 225 400 55000 17641800
627	14753414 8344 1837563 2303576 106 120 352 1546 1546 544192 841320832
628	14761758 50038 1998879 2268634 111.001 118.995 2286 1 2 3429 5715
630	14811796 50038 1998879 2268634 111.001 118.995 2286 0 1 1143 1143
632	14861834 3976 1838722 2302056 106.04 119.96 175 213 387 52500 16196600
633	14865810 3976 1838723 2302057 106.04 119.96 175 213 387 52500 16196600
634	14869786 8302 1838837 2302190 106.04 119.96 350 1546 1546 541100 836540600
639	14878088 3996 1837440 2303444 106 120 176 200 375 50600 15001800
640	14882084 3996 1837441 2303445 106 120 176 200 375 50600 15001800
641	14886080 8344 1837565 2303578 106 120 352 1546 1546 544192 841320832
646	14894424 3976 1838724 2302058 106.04 119.96 175 188 362 48125 13680975
647	14898400 3976 1838725 2302059 106.04 119.96 175 188 362 48125 13680975
648	14902376 8302 1838839 2302192 106.04 119.96 350 1546 1546 541100 836540600
653	14910678 3996 1837442 2303446 106 120 176 175 350 46200 12581800
654	14914674 3996 1837443 2303447 106 120 176 175 350 46200 12581800
655	14918670 8344 1837567 2303580 106 120 352 1546 1546 544192 841320832
660	14927014 3976 1838726 2302060 106.04 119.96 175 163 337 43750 11384100
661	14930990 3976 1838727 2302061 106.04 119.96 175 163 337 43750 11384100
662	14934966 8302 1838841 2302194 106.04 119.96 350 1546 1546 541100 836540600
667	14943268 3996 1837444 2303448 106 120 176 150 325 41800 10381800
668	14947264 3996 1837445 2303449 106 120 176 150 325 41800 10381800
669	14951260 8344 1837569 2303582 106 120 352 1546 1546 544192 841320832
674	14959604 3996 1837446 2303450 106 120 176 125 300 37400 8401800
675	14963600 3996 1837447 2303451 106 120 176 125 300 37400 8401800
676	14967596 8344 1837571 2303584 106 120 352 1546 1546 544192 841320832
681	14975940 3976 1838728 2302062 106.04 119.96 175 113 287 35000 7446600
682	14979916 3976 1838729 2302063 106.04 119.96 175 113 287 35000 7446600
683	14983892 8302 1838843 2302196 106.04 119.96 350 1546 1546 541100 836540600
692	14992194 3996 1837448 2303452 106 120 176 100 275 33000 6641800
693	14996190 3996 1837449 2303453 106 120 176 100 275 33000 6641800
694	15000186 3996 1837450 2303454 106 120 176 100 275 33000 6641800
695	15004182 3996 1837451 2303455 106 120 176 100 275 33000 6641800
696	15008178 8344 1837573 2303586 106 120 352 1546 1546 544192 841320832
697	15016522 8344 1837575 2303588 106 120 352 1546 1546 544192 841320832
702	15024866 3964 1838730 2302064 106.04 119.96 175 88 262 30625 5805975
703	15028830 3964 1838731 2302065 106.04 119.96 175 88 262 30625 5805975
704	15032794 8302 1838845 2302198 106.04 119.96 350 1546 1546 541100 836540600
709	15041096 3971 1837452 2303456 106 120 176 75 250 28600 5101800
710	15045067 3971 1837453 2303457 106 120 176 75 250 28600 5101800
711	15049038 8344 1837577 2303590 106 120 352 1546 1546 544192 841320832
716	15057382 3939 1838732 2302066 106.04 119.96 175 63 237 26250 4384100
717	15061321 3939 1838733 2302067 106.04 119.96 175 63 237 26250 4384100
718	15065260 8302 1838847 2302200 106.04 119.96 350 1546 1546 541100 836540600
723	15073562 3946 1837454 2303458 106 120 176 50 225 24200 3781800
724	15077508 3946 1837455 2303459 106 120 176 50 225 24200 3781800
725	15081454 8344 1837579 2303592 106 120 352 1546 1546 544192 841320832
730	15089798 3914 1838734 2302068 106.04 119.96 175 38 212 21875 3180975
731	15093712 3914 1838735 2302069 106.04 119.96 175 38 212 21875 3180975
732	15097626 8302 1838849 2302202 106.04 119.96 350 1546 1546 541100 836540600
737	15105928 3921 1837456 2303460 106 120 176 25 200 19800 2681800
738	15109849 3921 1837457 2303461 106 120 176 25 200 19800 2681800
739	15113770 8344 1837581 2303594 106 120 352 1546 1546 544192 841320832
740	15122114 87640 1837013 2303201 105.987 119.994 4004 1 2 6006 10010
742	15209754 87640 1837013 2303201 105.987 119.994 4004 0 1 2002 2002
744	15297394 3889 1838736 2302070 106.04 119.96 175 13 187 17500 2196600
745	15301283 3889 1838737 2302071 106.04 119.96 175 13 187 17500 2196600
746	15305172 8302 1838851 2302204 106.04 119.96 350 1546 1546 541100 836540600
747	15313474 54 1837363 1837363 106 106 3 0 2 2 4
748	15313528 18 1837363 1837363 106 106 1 0 0 0 0
749	15313546 18 1837363 1837363 106 106 1 1 1 1 1
750	15313564 19 1837363 1837363 106 106 1 31 31 31 961
751	15313583 3886 1837487 2303462 106 120 176 0 175 15400 1801800
752	15317469 3886 1837488 2303463 106 120 176 0 175 15400 1801800
753	15321355 8344 1837585 2303596 106 120 352 1546 1546 544192 841320832
754	15329699 54 1869283 1869283 107 107 3 0 2 2 4
755	15329753 18 1869283 1869283 107 107 1 0 0 0 0
756	15329771 18 1869283 1869283 107 107 1 1 1 1 1
757	15329789 19 1869283 1869283 107 107 1 31 31 31 961
758	15329808 3592 1869403 2302072 107 119.96 163 0 162 13203 1430325
759	15333400 3592 1869404 2302073 107 119.96 163 0 162 13203 1430325
760	15336992 7730 1869497 2302206 107 119.96 326 1546 1546 503996 779177816
761	15344722 54 1933465 1933465 109 109 3 0 2 2 4
762	15344776 18 1933465 1933465 109 109 1 0 0 0 0
763	15344794 18 1933465 1933465 109 109 1 1 1 1 1
764	15344812 19 1933465 1933465 109 109 1 31 31 31 961
765	15344831 54 1933465 1933465 109 109 3 0 2 2 4
766	15344885 18 1933465 1933465 109 109 1 0 0 0 0
767	15344903 18 1933465 1933465 109 109 1 1 1 1 1
768	15344921 19 1933465 1933465 109 109 1 31 31 31 961
769	15344940 3024 1933577 2302074 109 119.96 138 0 137 9453 866525
770	15347964 3024 1933578 2302075 109 119.96 138 0 137 9453 866525
771	15350988 3024 1933579 2302076 109 119.96 138 0 137 9453 866525
772	15354012 3024 1933580 2302077 109 119.96 138 0 137 9453 866525
773	15357036 6544 1933673 2302208 109 119.96 276 1546 1546 426696 659672016
774	15363580 6544 1933677 2302210 109 119.96 276 1546 1546 426696 659672016
775	15370124 54 1966051 1966051 110 110 3 0 2 2 4
776	15370178 18 1966051 1966051 110 110 1 0 0 0 0
777	15370196 18 1966051 1966051 110 110 1 1 1 1 1
778	15370214 19 1966051 1966051 110 110 1 31 31 31 961
779	15370233 2750 1966177 2303464 110 120 126 0 125 7875 658875
780	15372983 2750 1966178 2303465 110 120 126 0 125 7875 658875
781	15375733 5972 1966277 2303598 110 120 252 1546 1546 389592 602309232
782	15381705 54 1998645 1998645 111 111 3 0 2 2 4
783	15381759 18 1998645 1998645 111 111 1 0 0 0 0
784	15381777 18 1998645 1998645 111 111 1 1 1 1 1
785	15381795 19 1998645 1998645 111 111 1 31 31 31 961
786	15381814 2456 1998765 2302078 111 119.96 113 0 112 6328 474600
787	15384270 2456 1998766 2302079 111 119.96 113 0 112 6328 474600
788	15386726 5358 1998861 2302212 111 119.96 226 1546 1546 349396 540166216
789	15392084 54 2031566 2031566 112 112 3 0 2 2 4
790	15392138 18 2031566 2031566 112 112 1 0 0 0 0
791	15392156 18 2031566 2031566 112 112 1 1 1 1 1
792	15392174 19 2031566 2031566 112 112 1 31 31 31 961
793	15392193 2182 2031695 2303466 112 120 101 0 100 5050 338350
794	15394375 2182 2031696 2303467 112 120 101 0 100 5050 338350
795	15396557 4786 2031797 2303600 112 120 202 1546 1546 312292 482803432
796	15401343 54 2098084 2098084 114 114 3 0 2 2 4
797	15401397 18 2098084 2098084 114 114 1 0 0 0 0
798	15401415 18 2098084 2098084 114 114 1 1 1 1 1
799	15401433 19 2098084 2098084 114 114 1 31 31 31 961
800	15401452 1638 2098214 2303468 114 120 76 0 75 2850 143450
801	15403090 1638 2098215 2303469 114 120 76 0 75 2850 143450
802	15404728 3600 2098318 2303602 114 120 152 1546 1546 234992 363297632
803	15408328 31314 2131690 2303312 115 119.998 1431 0 2 2144 3574
804	15439642 18 2131690 2131690 115 115 1 0 0 0 0
805	15439660 31278 2131690 2303312 115 119.998 1429 0 1 715 715
806	15470938 19 2131690 2131690 115 115 1 31 31 31 961
807	15470957 54 2131690 2131690 115 115 3 0 2 2 4
808	15471011 18 2131690 2131690 115 115 1 0 0 0 0
809	15471029 18 2131690 2131690 115 115 1 1 1 1 1
810	15471047 19 2131690 2131690 115 115 1 31 31 31 961
811	15471066 1357 2131810 2302080 115 119.96 63 0 62 1953 81375
812	15472423 1357 2131811 2302081 115 119.96 63 0 62 1953 81375
813	15473780 1357 2131812 2302082 115 119.96 63 0 62 1953 81375
814	15475137 1357 2131813 2302083 115 119.96 63 0 62 1953 81375
815	15476494 2986 2131910 2302214 115 119.96 126 1546 1546 194796 301154616
816	15479480 2986 2131914 2302216 115 119.96 126 1546 1546 194796 301154616
817	15482466 54 2165626 2165626 116 116 3 0 2 2 4
818	15482520 18 2165626 2165626 116 116 1 0 0 0 0
819	15482538 18 2165626 2165626 116 116 1 1 1 1 1
820	15482556 19 2165626 2165626 116 116 1 31 31 31 961
821	15482575 1095 2165752 2303470 116 120 51 0 50 1275 42925
822	15483670 1095 2165753 2303471 116 120 51 0 50 1275 42925
823	15484765 2414 2165856 2303604 116 120 102 1546 1546 157692 243791832
824	15487179 54 2199896 2199896 117 117 3 0 2 2 4
825	15487233 18 2199896 2199896 117 117 1 0 0 0 0
826	15487251 18 2199896 2199896 117 117 1 1 1 1 1
827	15487269 19 2199896 2199896 117 117 1 31 31 31 961
828	15487288 814 2200022 2302084 117 119.96 38 0 37 703 17575
829	15488102 814 2200023 2302085 117 119.96 38 0 37 703 17575
830	15488916 1800 2200124 2302218 117 119.96 76 1546 1546 117496 181648816
831	15490716 54 2234166 2234166 118 118 3 0 2 2 4
832	15490770 18 2234166 2234166 118 118 1 0 0 0 0
833	15490788 18 2234166 2234166 118 118 1 1 1 1 1
834	15490806 19 2234166 2234166 118 118 1 31 31 31 961
835	15490825 552 2234296 2303472 118 120 26 0 25 325 5525
836	15491377 552 2234297 2303473 118 120 26 0 25 325 5525
837	15491929 1228 2234400 2303606 118 120 52 1546 1546 80392 124286032
838	15493157 54 2268767 2268767 119 119 3 0 2 2 4
839	15493211 18 2268767 2268767 119 119 1 0 0 0 0
840	15493229 18 2268767 2268767 119 119 1 1 1 1 1
841	15493247 19 2268767 2268767 119 119 1 31 31 31 961
842	15493266 271 2268898 2302086 119 119.96 13 0 12 78 650
843	15493537 271 2268899 2302087 119 119.96 13 0 12 78 650
844	15493808 614 2269002 2302220 119 119.96 26 1546 1546 40196 62143016
845	15494422 54 2303373 2303373 120 120 3 0 2 2 4
846	15494476 18 2303373 2303373 120 120 1 0 0 0 0
847	15494494 18 2303373 2303373 120 120 1 1 1 1 1
848	15494512 19 2303373 2303373 120 120 1 31 31 31 961
849	15494531 18 2303505 2303505 120 120 1 0 0 0 0
850	15494549 18 2303506 2303506 120 120 1 0 0 0 0
851	15494567 42 2303609 2303611 120 120 2 1546 1546 3092 4780232

