file 9758948 1745676231                                         
version 2
run canvas-0-20250426-14:02:17-46083
attr configname canvas
attr datetime 20250426-14:02:17
attr experiment canvas
attr inifile omnetpp.ini
attr iterationvars ""
attr iterationvarsf ""
attr measurement ""
attr network Scenario
attr processid 46083
attr repetition 0
attr replication #0
attr resultdir results
attr runnumber 0
attr seedset 0
param *.visualizer.*.obstacleLossVisualizer.displayIntersections true
param *.visualizer.*.obstacleLossVisualizer.displayFaceNormalVectors true
param *.visualizer.*.obstacleLossVisualizer.intersectionLineColor "\"yellow\""
param *.visualizer.*.mediumVisualizer.signalPropagationAnimationSpeed 500/3e8
param *.visualizer.*.mediumVisualizer.signalTransmissionAnimationSpeed 50000/3e8
param *.visualizer.*.mediumVisualizer.displaySignals true
param *.visualizer.canvasVisualizer.mediumVisualizer.displaySignalDepartures false
param *.visualizer.canvasVisualizer.mediumVisualizer.displaySignalArrivals false
param *.visualizer.*.physicalLinkVisualizer.displayLinks true
param *.visualizer.osgVisualizer.typename "\"\""
param *.RSU.numApps 4
param *.RSU.app[0].typename "\"NJSPingApp\""
param *.RSU.app[0].destAddr "\"*\""
param *.RSU.app[0].sendInterval 20ms
param *.RSU.app[1].typename "\"NJSLoggingApp\""
param *.RSU.app[1].cleanAfterEachCalculation false
param *.RSU.app[2].typename "\"NJSLegacyLoggingApp\""
param *.RSU.app[2].cleanAfterEachCalculation false
param *.RSU.app[3].typename "\"SNRLoggingApp\""
param *.RSU.app[3].cleanAfterEachCalculation false
param *.jammer.mobility.typename "\"StationaryMobility\""
param *.jammer.numApps 1
param *.jammer.app[0].typename "\"NJSJammerApp\""
param *.jammer.app[0].destAddr "\"\""
param *.jammer.app[0].sendInterval 5ms
param *.jammer.app[0].packetSize 8B
param *.jammer.app[0].jammingSourceAddress "\"jammer\""
param *.jammer.app[0].isProactive true
param *.jammer.app[0].jammingRadius 215m
param *.jammer.wlan[*].radio.displayCommunicationRange true
param *.jammer.wlan[*].radio.transmitter.power 1.6mW
param *.node[*].numApps 2
param *.node[*].app[0].typename "\"NJSPingApp\""
param *.node[*].app[0].destAddr "\"RSU\""
param *.node[*].app[0].sendInterval 80ms
param *.node[*].app[0].packetSize 1518B
param *.node[*].app[1].typename "\"SNRPingApp\""
param *.node[*].app[1].destAddr "\"RSU\""
param *.node[*].app[1].sendInterval 80ms
param *.node[*].app[1].packetSize 1518B
param *.RSU.wlan[*].radio.transmitter.power 15mW
param *.node[*].wlan[*].radio.transmitter.power 15mW
param **.wlan[*].radio.transmitter.bitrate 2Mbps
param **.wlan[*].radio.transmitter.headerLength 272B
param **.wlan[*].radio.transmitter.centerFrequency 2.4GHz
param **.wlan[*].radio.receiver.sensitivity -85dBm
param **.wlan[*].radio.receiver.snirThreshold 4dB
param *.node[*].mobility.typename "\"VeinsInetMobility\""
param **.constraintAreaMinX 0m
param **.constraintAreaMinY 0m
param **.constraintAreaMinZ 0m
param **.constraintAreaMaxX 5500m
param **.constraintAreaMaxY 5500m
param **.constraintAreaMaxZ 50m
param *.manager.updateInterval 1s
param *.manager.host "\"localhost\""
param *.manager.port 9999
param *.manager.numVehicles 1
param *.manager.autoShutdown true
param *.manager.launchConfig "xmldoc(\"durham.launchd.xml\")"
param *.obstacles.obstacles "xmldoc(\"config.xml\", \"//AnalogueModel[@type='SimpleObstacleShadowing']/obstacles\")"
param *.manager.moduleType "\"inetwirelesstutorial.veins_inet.VeinsInetCar\""

vector 0 Scenario.RSU.wlan[0].radio radioMode:vector ETV
attr interpolationmode sample-hold
attr source radioModeChanged
attr title "Radio mode, vector"
vector 1 Scenario.RSU.wlan[0].radio radioChannel:vector ETV
attr interpolationmode sample-hold
attr source radioChannelChanged
attr title "Radio channel, vector"
vector 2 Scenario.jammer.wlan[0].radio radioMode:vector ETV
attr interpolationmode sample-hold
attr source radioModeChanged
attr title "Radio mode, vector"
vector 3 Scenario.jammer.wlan[0].radio radioChannel:vector ETV
attr interpolationmode sample-hold
attr source radioChannelChanged
attr title "Radio channel, vector"
vector 4 Scenario.RSU.wlan[0].radio receptionState:vector ETV
attr interpolationmode sample-hold
attr source receptionStateChanged
attr title "Radio reception state, vector"
vector 5 Scenario.jammer.wlan[0].radio receptionState:vector ETV
attr interpolationmode sample-hold
attr source receptionStateChanged
attr title "Radio reception state, vector"
vector 6 Scenario.RSU.wlan[0].mac.dcf.recoveryProcedure contentionWindowChanged:vector ETV
attr interpolationmode sample-hold
attr title "contention window, vector"
vector 7 Scenario.jammer.wlan[0].mac.dcf.recoveryProcedure contentionWindowChanged:vector ETV
attr interpolationmode sample-hold
attr title "contention window, vector"
vector 8 Scenario.RSU.app[0] pingTxSeq:vector ETV
attr interpolationmode none
attr title "ping tx seq, vector"
vector 9 Scenario.RSU.lo[0].lo rcvdPkFromHl:vector(packetBytes) ETV
attr interpolationmode none
attr source packetReceivedFromUpper
attr title "packets received from higher layer, vector(packetBytes)"
vector 10 Scenario.RSU.lo[0].lo passedUpPk:vector(packetBytes) ETV
attr interpolationmode none
attr source packetSentToUpper
attr title "packets passed to higher layer, vector(packetBytes)"
vector 11 Scenario.RSU.app[0] pingRxSeq:vector ETV
attr interpolationmode none
attr title "ping rx seq, vector"
vector 12 Scenario.node[0].wlan[0].radio radioMode:vector ETV
attr interpolationmode sample-hold
attr source radioModeChanged
attr title "Radio mode, vector"
vector 13 Scenario.node[0].wlan[0].radio radioChannel:vector ETV
attr interpolationmode sample-hold
attr source radioChannelChanged
attr title "Radio channel, vector"
vector 14 Scenario.node[0].wlan[0].radio receptionState:vector ETV
attr interpolationmode sample-hold
attr source receptionStateChanged
attr title "Radio reception state, vector"
vector 15 Scenario.node[0].wlan[0].mac.dcf.recoveryProcedure contentionWindowChanged:vector ETV
attr interpolationmode sample-hold
attr title "contention window, vector"
vector 16 Scenario.node[1].wlan[0].radio radioMode:vector ETV
attr interpolationmode sample-hold
attr source radioModeChanged
attr title "Radio mode, vector"
vector 17 Scenario.node[1].wlan[0].radio radioChannel:vector ETV
attr interpolationmode sample-hold
attr source radioChannelChanged
attr title "Radio channel, vector"
vector 18 Scenario.node[1].wlan[0].radio receptionState:vector ETV
attr interpolationmode sample-hold
attr source receptionStateChanged
attr title "Radio reception state, vector"
vector 19 Scenario.node[1].wlan[0].mac.dcf.recoveryProcedure contentionWindowChanged:vector ETV
attr interpolationmode sample-hold
attr title "contention window, vector"
vector 20 Scenario.node[2].wlan[0].radio radioMode:vector ETV
attr interpolationmode sample-hold
attr source radioModeChanged
attr title "Radio mode, vector"
vector 21 Scenario.node[2].wlan[0].radio radioChannel:vector ETV
attr interpolationmode sample-hold
attr source radioChannelChanged
attr title "Radio channel, vector"
vector 22 Scenario.node[2].wlan[0].radio receptionState:vector ETV
attr interpolationmode sample-hold
attr source receptionStateChanged
attr title "Radio reception state, vector"
vector 23 Scenario.node[2].wlan[0].mac.dcf.recoveryProcedure contentionWindowChanged:vector ETV
attr interpolationmode sample-hold
attr title "contention window, vector"
vector 24 Scenario.node[3].wlan[0].radio radioMode:vector ETV
attr interpolationmode sample-hold
attr source radioModeChanged
attr title "Radio mode, vector"
vector 25 Scenario.node[3].wlan[0].radio radioChannel:vector ETV
attr interpolationmode sample-hold
attr source radioChannelChanged
attr title "Radio channel, vector"
vector 26 Scenario.node[3].wlan[0].radio receptionState:vector ETV
attr interpolationmode sample-hold
attr source receptionStateChanged
attr title "Radio reception state, vector"
vector 27 Scenario.node[3].wlan[0].mac.dcf.recoveryProcedure contentionWindowChanged:vector ETV
attr interpolationmode sample-hold
attr title "contention window, vector"
vector 28 Scenario.node[4].wlan[0].radio radioMode:vector ETV
attr interpolationmode sample-hold
attr source radioModeChanged
attr title "Radio mode, vector"
vector 29 Scenario.node[4].wlan[0].radio radioChannel:vector ETV
attr interpolationmode sample-hold
attr source radioChannelChanged
attr title "Radio channel, vector"
vector 30 Scenario.node[4].wlan[0].radio receptionState:vector ETV
attr interpolationmode sample-hold
attr source receptionStateChanged
attr title "Radio reception state, vector"
vector 31 Scenario.node[4].wlan[0].mac.dcf.recoveryProcedure contentionWindowChanged:vector ETV
attr interpolationmode sample-hold
attr title "contention window, vector"
vector 32 Scenario.node[5].wlan[0].radio radioMode:vector ETV
attr interpolationmode sample-hold
attr source radioModeChanged
attr title "Radio mode, vector"
vector 33 Scenario.node[5].wlan[0].radio radioChannel:vector ETV
attr interpolationmode sample-hold
attr source radioChannelChanged
attr title "Radio channel, vector"
vector 34 Scenario.node[5].wlan[0].radio receptionState:vector ETV
attr interpolationmode sample-hold
attr source receptionStateChanged
attr title "Radio reception state, vector"
vector 35 Scenario.node[5].wlan[0].mac.dcf.recoveryProcedure contentionWindowChanged:vector ETV
attr interpolationmode sample-hold
attr title "contention window, vector"
vector 36 Scenario.node[6].wlan[0].radio radioMode:vector ETV
attr interpolationmode sample-hold
attr source radioModeChanged
attr title "Radio mode, vector"
vector 37 Scenario.node[6].wlan[0].radio radioChannel:vector ETV
attr interpolationmode sample-hold
attr source radioChannelChanged
attr title "Radio channel, vector"
vector 38 Scenario.node[6].wlan[0].radio receptionState:vector ETV
attr interpolationmode sample-hold
attr source receptionStateChanged
attr title "Radio reception state, vector"
vector 39 Scenario.node[6].wlan[0].mac.dcf.recoveryProcedure contentionWindowChanged:vector ETV
attr interpolationmode sample-hold
attr title "contention window, vector"
vector 40 Scenario.node[0].app[0] pingTxSeq:vector ETV
attr interpolationmode none
attr title "ping tx seq, vector"
vector 41 Scenario.node[0].app[1] pingTxSeq:vector ETV
attr interpolationmode none
attr title "ping tx seq, vector"
vector 42 Scenario.node[1].app[0] pingTxSeq:vector ETV
attr interpolationmode none
attr title "ping tx seq, vector"
vector 43 Scenario.node[1].app[1] pingTxSeq:vector ETV
attr interpolationmode none
attr title "ping tx seq, vector"
vector 44 Scenario.node[2].app[0] pingTxSeq:vector ETV
attr interpolationmode none
attr title "ping tx seq, vector"
vector 45 Scenario.node[2].app[1] pingTxSeq:vector ETV
attr interpolationmode none
attr title "ping tx seq, vector"
vector 46 Scenario.node[3].app[0] pingTxSeq:vector ETV
attr interpolationmode none
attr title "ping tx seq, vector"
vector 47 Scenario.node[3].app[1] pingTxSeq:vector ETV
attr interpolationmode none
attr title "ping tx seq, vector"
vector 48 Scenario.node[4].app[0] pingTxSeq:vector ETV
attr interpolationmode none
attr title "ping tx seq, vector"
vector 49 Scenario.node[4].app[1] pingTxSeq:vector ETV
attr interpolationmode none
attr title "ping tx seq, vector"
vector 50 Scenario.node[5].app[0] pingTxSeq:vector ETV
attr interpolationmode none
attr title "ping tx seq, vector"
vector 51 Scenario.node[5].app[1] pingTxSeq:vector ETV
attr interpolationmode none
attr title "ping tx seq, vector"
vector 52 Scenario.node[6].app[0] pingTxSeq:vector ETV
attr interpolationmode none
attr title "ping tx seq, vector"
vector 53 Scenario.node[6].app[1] pingTxSeq:vector ETV
attr interpolationmode none
attr title "ping tx seq, vector"
vector 54 Scenario.node[0].ipv4.ip packetDropNoRouteFound:vector(packetBytes) ETV
attr interpolationmode none
attr source packetDropReasonIsNoRouteFound(packetDropped)
attr title "packet drop: no route found, vector(packetBytes)"
vector 55 Scenario.node[1].ipv4.ip packetDropNoRouteFound:vector(packetBytes) ETV
attr interpolationmode none
attr source packetDropReasonIsNoRouteFound(packetDropped)
attr title "packet drop: no route found, vector(packetBytes)"
vector 56 Scenario.node[2].ipv4.ip packetDropNoRouteFound:vector(packetBytes) ETV
attr interpolationmode none
attr source packetDropReasonIsNoRouteFound(packetDropped)
attr title "packet drop: no route found, vector(packetBytes)"
vector 57 Scenario.node[3].ipv4.ip packetDropNoRouteFound:vector(packetBytes) ETV
attr interpolationmode none
attr source packetDropReasonIsNoRouteFound(packetDropped)
attr title "packet drop: no route found, vector(packetBytes)"
vector 58 Scenario.node[4].ipv4.ip packetDropNoRouteFound:vector(packetBytes) ETV
attr interpolationmode none
attr source packetDropReasonIsNoRouteFound(packetDropped)
attr title "packet drop: no route found, vector(packetBytes)"
vector 59 Scenario.node[5].ipv4.ip packetDropNoRouteFound:vector(packetBytes) ETV
attr interpolationmode none
attr source packetDropReasonIsNoRouteFound(packetDropped)
attr title "packet drop: no route found, vector(packetBytes)"
vector 60 Scenario.node[6].ipv4.ip packetDropNoRouteFound:vector(packetBytes) ETV
attr interpolationmode none
attr source packetDropReasonIsNoRouteFound(packetDropped)
attr title "packet drop: no route found, vector(packetBytes)"
vector 61 Scenario.node[7].wlan[0].radio radioMode:vector ETV
attr interpolationmode sample-hold
attr source radioModeChanged
attr title "Radio mode, vector"
vector 62 Scenario.node[7].wlan[0].radio radioChannel:vector ETV
attr interpolationmode sample-hold
attr source radioChannelChanged
attr title "Radio channel, vector"
vector 63 Scenario.node[7].wlan[0].radio receptionState:vector ETV
attr interpolationmode sample-hold
attr source receptionStateChanged
attr title "Radio reception state, vector"
vector 64 Scenario.node[7].wlan[0].mac.dcf.recoveryProcedure contentionWindowChanged:vector ETV
attr interpolationmode sample-hold
attr title "contention window, vector"
vector 65 Scenario.node[8].wlan[0].radio radioMode:vector ETV
attr interpolationmode sample-hold
attr source radioModeChanged
attr title "Radio mode, vector"
vector 66 Scenario.node[8].wlan[0].radio radioChannel:vector ETV
attr interpolationmode sample-hold
attr source radioChannelChanged
attr title "Radio channel, vector"
vector 67 Scenario.node[8].wlan[0].radio receptionState:vector ETV
attr interpolationmode sample-hold
attr source receptionStateChanged
attr title "Radio reception state, vector"
vector 68 Scenario.node[8].wlan[0].mac.dcf.recoveryProcedure contentionWindowChanged:vector ETV
attr interpolationmode sample-hold
attr title "contention window, vector"
vector 69 Scenario.node[9].wlan[0].radio radioMode:vector ETV
attr interpolationmode sample-hold
attr source radioModeChanged
attr title "Radio mode, vector"
vector 70 Scenario.node[9].wlan[0].radio radioChannel:vector ETV
attr interpolationmode sample-hold
attr source radioChannelChanged
attr title "Radio channel, vector"
vector 71 Scenario.node[9].wlan[0].radio receptionState:vector ETV
attr interpolationmode sample-hold
attr source receptionStateChanged
attr title "Radio reception state, vector"
vector 72 Scenario.node[9].wlan[0].mac.dcf.recoveryProcedure contentionWindowChanged:vector ETV
attr interpolationmode sample-hold
attr title "contention window, vector"
vector 73 Scenario.node[10].wlan[0].radio radioMode:vector ETV
attr interpolationmode sample-hold
attr source radioModeChanged
attr title "Radio mode, vector"
vector 74 Scenario.node[10].wlan[0].radio radioChannel:vector ETV
attr interpolationmode sample-hold
attr source radioChannelChanged
attr title "Radio channel, vector"
vector 75 Scenario.node[10].wlan[0].radio receptionState:vector ETV
attr interpolationmode sample-hold
attr source receptionStateChanged
attr title "Radio reception state, vector"
vector 76 Scenario.node[10].wlan[0].mac.dcf.recoveryProcedure contentionWindowChanged:vector ETV
attr interpolationmode sample-hold
attr title "contention window, vector"
vector 77 Scenario.node[11].wlan[0].radio radioMode:vector ETV
attr interpolationmode sample-hold
attr source radioModeChanged
attr title "Radio mode, vector"
vector 78 Scenario.node[11].wlan[0].radio radioChannel:vector ETV
attr interpolationmode sample-hold
attr source radioChannelChanged
attr title "Radio channel, vector"
vector 79 Scenario.node[11].wlan[0].radio receptionState:vector ETV
attr interpolationmode sample-hold
attr source receptionStateChanged
attr title "Radio reception state, vector"
vector 80 Scenario.node[11].wlan[0].mac.dcf.recoveryProcedure contentionWindowChanged:vector ETV
attr interpolationmode sample-hold
attr title "contention window, vector"
vector 81 Scenario.node[12].wlan[0].radio radioMode:vector ETV
attr interpolationmode sample-hold
attr source radioModeChanged
attr title "Radio mode, vector"
vector 82 Scenario.node[12].wlan[0].radio radioChannel:vector ETV
attr interpolationmode sample-hold
attr source radioChannelChanged
attr title "Radio channel, vector"
vector 83 Scenario.node[12].wlan[0].radio receptionState:vector ETV
attr interpolationmode sample-hold
attr source receptionStateChanged
attr title "Radio reception state, vector"
vector 84 Scenario.node[12].wlan[0].mac.dcf.recoveryProcedure contentionWindowChanged:vector ETV
attr interpolationmode sample-hold
attr title "contention window, vector"
vector 85 Scenario.node[13].wlan[0].radio radioMode:vector ETV
attr interpolationmode sample-hold
attr source radioModeChanged
attr title "Radio mode, vector"
vector 86 Scenario.node[13].wlan[0].radio radioChannel:vector ETV
attr interpolationmode sample-hold
attr source radioChannelChanged
attr title "Radio channel, vector"
vector 87 Scenario.node[13].wlan[0].radio receptionState:vector ETV
attr interpolationmode sample-hold
attr source receptionStateChanged
attr title "Radio reception state, vector"
vector 88 Scenario.node[13].wlan[0].mac.dcf.recoveryProcedure contentionWindowChanged:vector ETV
attr interpolationmode sample-hold
attr title "contention window, vector"
vector 89 Scenario.node[14].wlan[0].radio radioMode:vector ETV
attr interpolationmode sample-hold
attr source radioModeChanged
attr title "Radio mode, vector"
vector 90 Scenario.node[14].wlan[0].radio radioChannel:vector ETV
attr interpolationmode sample-hold
attr source radioChannelChanged
attr title "Radio channel, vector"
vector 91 Scenario.node[14].wlan[0].radio receptionState:vector ETV
attr interpolationmode sample-hold
attr source receptionStateChanged
attr title "Radio reception state, vector"
vector 92 Scenario.node[14].wlan[0].mac.dcf.recoveryProcedure contentionWindowChanged:vector ETV
attr interpolationmode sample-hold
attr title "contention window, vector"
vector 93 Scenario.node[7].app[0] pingTxSeq:vector ETV
attr interpolationmode none
attr title "ping tx seq, vector"
vector 94 Scenario.node[7].app[1] pingTxSeq:vector ETV
attr interpolationmode none
attr title "ping tx seq, vector"
vector 95 Scenario.node[8].app[0] pingTxSeq:vector ETV
attr interpolationmode none
attr title "ping tx seq, vector"
vector 96 Scenario.node[8].app[1] pingTxSeq:vector ETV
attr interpolationmode none
attr title "ping tx seq, vector"
vector 97 Scenario.node[9].app[0] pingTxSeq:vector ETV
attr interpolationmode none
attr title "ping tx seq, vector"
vector 98 Scenario.node[9].app[1] pingTxSeq:vector ETV
attr interpolationmode none
attr title "ping tx seq, vector"
vector 99 Scenario.node[10].app[0] pingTxSeq:vector ETV
attr interpolationmode none
attr title "ping tx seq, vector"
vector 100 Scenario.node[10].app[1] pingTxSeq:vector ETV
attr interpolationmode none
attr title "ping tx seq, vector"
vector 101 Scenario.node[11].app[0] pingTxSeq:vector ETV
attr interpolationmode none
attr title "ping tx seq, vector"
vector 102 Scenario.node[11].app[1] pingTxSeq:vector ETV
attr interpolationmode none
attr title "ping tx seq, vector"
vector 103 Scenario.node[12].app[0] pingTxSeq:vector ETV
attr interpolationmode none
attr title "ping tx seq, vector"
vector 104 Scenario.node[12].app[1] pingTxSeq:vector ETV
attr interpolationmode none
attr title "ping tx seq, vector"
vector 105 Scenario.node[13].app[0] pingTxSeq:vector ETV
attr interpolationmode none
attr title "ping tx seq, vector"
vector 106 Scenario.node[13].app[1] pingTxSeq:vector ETV
attr interpolationmode none
attr title "ping tx seq, vector"
vector 107 Scenario.node[14].app[0] pingTxSeq:vector ETV
attr interpolationmode none
attr title "ping tx seq, vector"
vector 108 Scenario.node[14].app[1] pingTxSeq:vector ETV
attr interpolationmode none
attr title "ping tx seq, vector"
vector 109 Scenario.node[7].ipv4.ip packetDropNoRouteFound:vector(packetBytes) ETV
attr interpolationmode none
attr source packetDropReasonIsNoRouteFound(packetDropped)
attr title "packet drop: no route found, vector(packetBytes)"
vector 110 Scenario.node[8].ipv4.ip packetDropNoRouteFound:vector(packetBytes) ETV
attr interpolationmode none
attr source packetDropReasonIsNoRouteFound(packetDropped)
attr title "packet drop: no route found, vector(packetBytes)"
vector 111 Scenario.node[9].ipv4.ip packetDropNoRouteFound:vector(packetBytes) ETV
attr interpolationmode none
attr source packetDropReasonIsNoRouteFound(packetDropped)
attr title "packet drop: no route found, vector(packetBytes)"
vector 112 Scenario.node[10].ipv4.ip packetDropNoRouteFound:vector(packetBytes) ETV
attr interpolationmode none
attr source packetDropReasonIsNoRouteFound(packetDropped)
attr title "packet drop: no route found, vector(packetBytes)"
vector 113 Scenario.node[11].ipv4.ip packetDropNoRouteFound:vector(packetBytes) ETV
attr interpolationmode none
attr source packetDropReasonIsNoRouteFound(packetDropped)
attr title "packet drop: no route found, vector(packetBytes)"
vector 114 Scenario.node[12].ipv4.ip packetDropNoRouteFound:vector(packetBytes) ETV
attr interpolationmode none
attr source packetDropReasonIsNoRouteFound(packetDropped)
attr title "packet drop: no route found, vector(packetBytes)"
vector 115 Scenario.node[13].ipv4.ip packetDropNoRouteFound:vector(packetBytes) ETV
attr interpolationmode none
attr source packetDropReasonIsNoRouteFound(packetDropped)
attr title "packet drop: no route found, vector(packetBytes)"
vector 116 Scenario.node[14].ipv4.ip packetDropNoRouteFound:vector(packetBytes) ETV
attr interpolationmode none
attr source packetDropReasonIsNoRouteFound(packetDropped)
attr title "packet drop: no route found, vector(packetBytes)"
vector 117 Scenario.node[15].wlan[0].radio radioMode:vector ETV
attr interpolationmode sample-hold
attr source radioModeChanged
attr title "Radio mode, vector"
vector 118 Scenario.node[15].wlan[0].radio radioChannel:vector ETV
attr interpolationmode sample-hold
attr source radioChannelChanged
attr title "Radio channel, vector"
vector 119 Scenario.node[15].wlan[0].radio receptionState:vector ETV
attr interpolationmode sample-hold
attr source receptionStateChanged
attr title "Radio reception state, vector"
vector 120 Scenario.node[15].wlan[0].mac.dcf.recoveryProcedure contentionWindowChanged:vector ETV
attr interpolationmode sample-hold
attr title "contention window, vector"
vector 121 Scenario.node[16].wlan[0].radio radioMode:vector ETV
attr interpolationmode sample-hold
attr source radioModeChanged
attr title "Radio mode, vector"
vector 122 Scenario.node[16].wlan[0].radio radioChannel:vector ETV
attr interpolationmode sample-hold
attr source radioChannelChanged
attr title "Radio channel, vector"
vector 123 Scenario.node[16].wlan[0].radio receptionState:vector ETV
attr interpolationmode sample-hold
attr source receptionStateChanged
attr title "Radio reception state, vector"
vector 124 Scenario.node[16].wlan[0].mac.dcf.recoveryProcedure contentionWindowChanged:vector ETV
attr interpolationmode sample-hold
attr title "contention window, vector"
vector 125 Scenario.node[17].wlan[0].radio radioMode:vector ETV
attr interpolationmode sample-hold
attr source radioModeChanged
attr title "Radio mode, vector"
vector 126 Scenario.node[17].wlan[0].radio radioChannel:vector ETV
attr interpolationmode sample-hold
attr source radioChannelChanged
attr title "Radio channel, vector"
vector 127 Scenario.node[17].wlan[0].radio receptionState:vector ETV
attr interpolationmode sample-hold
attr source receptionStateChanged
attr title "Radio reception state, vector"
vector 128 Scenario.node[17].wlan[0].mac.dcf.recoveryProcedure contentionWindowChanged:vector ETV
attr interpolationmode sample-hold
attr title "contention window, vector"
vector 129 Scenario.node[18].wlan[0].radio radioMode:vector ETV
attr interpolationmode sample-hold
attr source radioModeChanged
attr title "Radio mode, vector"
vector 130 Scenario.node[18].wlan[0].radio radioChannel:vector ETV
attr interpolationmode sample-hold
attr source radioChannelChanged
attr title "Radio channel, vector"
vector 131 Scenario.node[18].wlan[0].radio receptionState:vector ETV
attr interpolationmode sample-hold
attr source receptionStateChanged
attr title "Radio reception state, vector"
vector 132 Scenario.node[18].wlan[0].mac.dcf.recoveryProcedure contentionWindowChanged:vector ETV
attr interpolationmode sample-hold
attr title "contention window, vector"
vector 133 Scenario.node[19].wlan[0].radio radioMode:vector ETV
attr interpolationmode sample-hold
attr source radioModeChanged
attr title "Radio mode, vector"
vector 134 Scenario.node[19].wlan[0].radio radioChannel:vector ETV
attr interpolationmode sample-hold
attr source radioChannelChanged
attr title "Radio channel, vector"
vector 135 Scenario.node[19].wlan[0].radio receptionState:vector ETV
attr interpolationmode sample-hold
attr source receptionStateChanged
attr title "Radio reception state, vector"
vector 136 Scenario.node[19].wlan[0].mac.dcf.recoveryProcedure contentionWindowChanged:vector ETV
attr interpolationmode sample-hold
attr title "contention window, vector"
vector 137 Scenario.node[20].wlan[0].radio radioMode:vector ETV
attr interpolationmode sample-hold
attr source radioModeChanged
attr title "Radio mode, vector"
vector 138 Scenario.node[20].wlan[0].radio radioChannel:vector ETV
attr interpolationmode sample-hold
attr source radioChannelChanged
attr title "Radio channel, vector"
vector 139 Scenario.node[20].wlan[0].radio receptionState:vector ETV
attr interpolationmode sample-hold
attr source receptionStateChanged
attr title "Radio reception state, vector"
vector 140 Scenario.node[20].wlan[0].mac.dcf.recoveryProcedure contentionWindowChanged:vector ETV
attr interpolationmode sample-hold
attr title "contention window, vector"
vector 141 Scenario.node[21].wlan[0].radio radioMode:vector ETV
attr interpolationmode sample-hold
attr source radioModeChanged
attr title "Radio mode, vector"
vector 142 Scenario.node[21].wlan[0].radio radioChannel:vector ETV
attr interpolationmode sample-hold
attr source radioChannelChanged
attr title "Radio channel, vector"
vector 143 Scenario.node[21].wlan[0].radio receptionState:vector ETV
attr interpolationmode sample-hold
attr source receptionStateChanged
attr title "Radio reception state, vector"
vector 144 Scenario.node[21].wlan[0].mac.dcf.recoveryProcedure contentionWindowChanged:vector ETV
attr interpolationmode sample-hold
attr title "contention window, vector"
vector 145 Scenario.node[15].app[0] pingTxSeq:vector ETV
attr interpolationmode none
attr title "ping tx seq, vector"
vector 146 Scenario.node[15].app[1] pingTxSeq:vector ETV
attr interpolationmode none
attr title "ping tx seq, vector"
vector 147 Scenario.node[16].app[0] pingTxSeq:vector ETV
attr interpolationmode none
attr title "ping tx seq, vector"
vector 148 Scenario.node[16].app[1] pingTxSeq:vector ETV
attr interpolationmode none
attr title "ping tx seq, vector"
vector 149 Scenario.node[17].app[0] pingTxSeq:vector ETV
attr interpolationmode none
attr title "ping tx seq, vector"
vector 150 Scenario.node[17].app[1] pingTxSeq:vector ETV
attr interpolationmode none
attr title "ping tx seq, vector"
vector 151 Scenario.node[18].app[0] pingTxSeq:vector ETV
attr interpolationmode none
attr title "ping tx seq, vector"
vector 152 Scenario.node[18].app[1] pingTxSeq:vector ETV
attr interpolationmode none
attr title "ping tx seq, vector"
vector 153 Scenario.node[19].app[0] pingTxSeq:vector ETV
attr interpolationmode none
attr title "ping tx seq, vector"
vector 154 Scenario.node[19].app[1] pingTxSeq:vector ETV
attr interpolationmode none
attr title "ping tx seq, vector"
vector 155 Scenario.node[20].app[0] pingTxSeq:vector ETV
attr interpolationmode none
attr title "ping tx seq, vector"
vector 156 Scenario.node[20].app[1] pingTxSeq:vector ETV
attr interpolationmode none
attr title "ping tx seq, vector"
vector 157 Scenario.node[21].app[0] pingTxSeq:vector ETV
attr interpolationmode none
attr title "ping tx seq, vector"
vector 158 Scenario.node[21].app[1] pingTxSeq:vector ETV
attr interpolationmode none
attr title "ping tx seq, vector"
vector 159 Scenario.node[15].ipv4.ip packetDropNoRouteFound:vector(packetBytes) ETV
attr interpolationmode none
attr source packetDropReasonIsNoRouteFound(packetDropped)
attr title "packet drop: no route found, vector(packetBytes)"
vector 160 Scenario.node[16].ipv4.ip packetDropNoRouteFound:vector(packetBytes) ETV
attr interpolationmode none
attr source packetDropReasonIsNoRouteFound(packetDropped)
attr title "packet drop: no route found, vector(packetBytes)"
vector 161 Scenario.node[17].ipv4.ip packetDropNoRouteFound:vector(packetBytes) ETV
attr interpolationmode none
attr source packetDropReasonIsNoRouteFound(packetDropped)
attr title "packet drop: no route found, vector(packetBytes)"
vector 162 Scenario.node[18].ipv4.ip packetDropNoRouteFound:vector(packetBytes) ETV
attr interpolationmode none
attr source packetDropReasonIsNoRouteFound(packetDropped)
attr title "packet drop: no route found, vector(packetBytes)"
vector 163 Scenario.node[19].ipv4.ip packetDropNoRouteFound:vector(packetBytes) ETV
attr interpolationmode none
attr source packetDropReasonIsNoRouteFound(packetDropped)
attr title "packet drop: no route found, vector(packetBytes)"
vector 164 Scenario.node[20].ipv4.ip packetDropNoRouteFound:vector(packetBytes) ETV
attr interpolationmode none
attr source packetDropReasonIsNoRouteFound(packetDropped)
attr title "packet drop: no route found, vector(packetBytes)"
vector 165 Scenario.node[21].ipv4.ip packetDropNoRouteFound:vector(packetBytes) ETV
attr interpolationmode none
attr source packetDropReasonIsNoRouteFound(packetDropped)
attr title "packet drop: no route found, vector(packetBytes)"
vector 166 Scenario.node[22].wlan[0].radio radioMode:vector ETV
attr interpolationmode sample-hold
attr source radioModeChanged
attr title "Radio mode, vector"
vector 167 Scenario.node[22].wlan[0].radio radioChannel:vector ETV
attr interpolationmode sample-hold
attr source radioChannelChanged
attr title "Radio channel, vector"
vector 168 Scenario.node[22].wlan[0].radio receptionState:vector ETV
attr interpolationmode sample-hold
attr source receptionStateChanged
attr title "Radio reception state, vector"
vector 169 Scenario.node[22].wlan[0].mac.dcf.recoveryProcedure contentionWindowChanged:vector ETV
attr interpolationmode sample-hold
attr title "contention window, vector"
vector 170 Scenario.node[23].wlan[0].radio radioMode:vector ETV
attr interpolationmode sample-hold
attr source radioModeChanged
attr title "Radio mode, vector"
vector 171 Scenario.node[23].wlan[0].radio radioChannel:vector ETV
attr interpolationmode sample-hold
attr source radioChannelChanged
attr title "Radio channel, vector"
vector 172 Scenario.node[23].wlan[0].radio receptionState:vector ETV
attr interpolationmode sample-hold
attr source receptionStateChanged
attr title "Radio reception state, vector"
vector 173 Scenario.node[23].wlan[0].mac.dcf.recoveryProcedure contentionWindowChanged:vector ETV
attr interpolationmode sample-hold
attr title "contention window, vector"
vector 174 Scenario.node[24].wlan[0].radio radioMode:vector ETV
attr interpolationmode sample-hold
attr source radioModeChanged
attr title "Radio mode, vector"
vector 175 Scenario.node[24].wlan[0].radio radioChannel:vector ETV
attr interpolationmode sample-hold
attr source radioChannelChanged
attr title "Radio channel, vector"
vector 176 Scenario.node[24].wlan[0].radio receptionState:vector ETV
attr interpolationmode sample-hold
attr source receptionStateChanged
attr title "Radio reception state, vector"
vector 177 Scenario.node[24].wlan[0].mac.dcf.recoveryProcedure contentionWindowChanged:vector ETV
attr interpolationmode sample-hold
attr title "contention window, vector"
vector 178 Scenario.node[25].wlan[0].radio radioMode:vector ETV
attr interpolationmode sample-hold
attr source radioModeChanged
attr title "Radio mode, vector"
vector 179 Scenario.node[25].wlan[0].radio radioChannel:vector ETV
attr interpolationmode sample-hold
attr source radioChannelChanged
attr title "Radio channel, vector"
vector 180 Scenario.node[25].wlan[0].radio receptionState:vector ETV
attr interpolationmode sample-hold
attr source receptionStateChanged
attr title "Radio reception state, vector"
vector 181 Scenario.node[25].wlan[0].mac.dcf.recoveryProcedure contentionWindowChanged:vector ETV
attr interpolationmode sample-hold
attr title "contention window, vector"
vector 182 Scenario.node[26].wlan[0].radio radioMode:vector ETV
attr interpolationmode sample-hold
attr source radioModeChanged
attr title "Radio mode, vector"
vector 183 Scenario.node[26].wlan[0].radio radioChannel:vector ETV
attr interpolationmode sample-hold
attr source radioChannelChanged
attr title "Radio channel, vector"
vector 184 Scenario.node[26].wlan[0].radio receptionState:vector ETV
attr interpolationmode sample-hold
attr source receptionStateChanged
attr title "Radio reception state, vector"
vector 185 Scenario.node[26].wlan[0].mac.dcf.recoveryProcedure contentionWindowChanged:vector ETV
attr interpolationmode sample-hold
attr title "contention window, vector"
vector 186 Scenario.node[27].wlan[0].radio radioMode:vector ETV
attr interpolationmode sample-hold
attr source radioModeChanged
attr title "Radio mode, vector"
vector 187 Scenario.node[27].wlan[0].radio radioChannel:vector ETV
attr interpolationmode sample-hold
attr source radioChannelChanged
attr title "Radio channel, vector"
vector 188 Scenario.node[27].wlan[0].radio receptionState:vector ETV
attr interpolationmode sample-hold
attr source receptionStateChanged
attr title "Radio reception state, vector"
vector 189 Scenario.node[27].wlan[0].mac.dcf.recoveryProcedure contentionWindowChanged:vector ETV
attr interpolationmode sample-hold
attr title "contention window, vector"
vector 190 Scenario.node[28].wlan[0].radio radioMode:vector ETV
attr interpolationmode sample-hold
attr source radioModeChanged
attr title "Radio mode, vector"
vector 191 Scenario.node[28].wlan[0].radio radioChannel:vector ETV
attr interpolationmode sample-hold
attr source radioChannelChanged
attr title "Radio channel, vector"
vector 192 Scenario.node[28].wlan[0].radio receptionState:vector ETV
attr interpolationmode sample-hold
attr source receptionStateChanged
attr title "Radio reception state, vector"
vector 193 Scenario.node[28].wlan[0].mac.dcf.recoveryProcedure contentionWindowChanged:vector ETV
attr interpolationmode sample-hold
attr title "contention window, vector"
vector 194 Scenario.node[29].wlan[0].radio radioMode:vector ETV
attr interpolationmode sample-hold
attr source radioModeChanged
attr title "Radio mode, vector"
vector 195 Scenario.node[29].wlan[0].radio radioChannel:vector ETV
attr interpolationmode sample-hold
attr source radioChannelChanged
attr title "Radio channel, vector"
vector 196 Scenario.node[29].wlan[0].radio receptionState:vector ETV
attr interpolationmode sample-hold
attr source receptionStateChanged
attr title "Radio reception state, vector"
vector 197 Scenario.node[29].wlan[0].mac.dcf.recoveryProcedure contentionWindowChanged:vector ETV
attr interpolationmode sample-hold
attr title "contention window, vector"
vector 198 Scenario.node[22].app[0] pingTxSeq:vector ETV
attr interpolationmode none
attr title "ping tx seq, vector"
vector 199 Scenario.node[22].app[1] pingTxSeq:vector ETV
attr interpolationmode none
attr title "ping tx seq, vector"
vector 200 Scenario.node[23].app[0] pingTxSeq:vector ETV
attr interpolationmode none
attr title "ping tx seq, vector"
vector 201 Scenario.node[23].app[1] pingTxSeq:vector ETV
attr interpolationmode none
attr title "ping tx seq, vector"
vector 202 Scenario.node[24].app[0] pingTxSeq:vector ETV
attr interpolationmode none
attr title "ping tx seq, vector"
vector 203 Scenario.node[24].app[1] pingTxSeq:vector ETV
attr interpolationmode none
attr title "ping tx seq, vector"
vector 204 Scenario.node[25].app[0] pingTxSeq:vector ETV
attr interpolationmode none
attr title "ping tx seq, vector"
vector 205 Scenario.node[25].app[1] pingTxSeq:vector ETV
attr interpolationmode none
attr title "ping tx seq, vector"
vector 206 Scenario.node[26].app[0] pingTxSeq:vector ETV
attr interpolationmode none
attr title "ping tx seq, vector"
vector 207 Scenario.node[26].app[1] pingTxSeq:vector ETV
attr interpolationmode none
attr title "ping tx seq, vector"
vector 208 Scenario.node[27].app[0] pingTxSeq:vector ETV
attr interpolationmode none
attr title "ping tx seq, vector"
vector 209 Scenario.node[27].app[1] pingTxSeq:vector ETV
attr interpolationmode none
attr title "ping tx seq, vector"
vector 210 Scenario.node[28].app[0] pingTxSeq:vector ETV
attr interpolationmode none
attr title "ping tx seq, vector"
vector 211 Scenario.node[28].app[1] pingTxSeq:vector ETV
attr interpolationmode none
attr title "ping tx seq, vector"
vector 212 Scenario.node[29].app[0] pingTxSeq:vector ETV
attr interpolationmode none
attr title "ping tx seq, vector"
vector 213 Scenario.node[29].app[1] pingTxSeq:vector ETV
attr interpolationmode none
attr title "ping tx seq, vector"
vector 214 Scenario.node[22].ipv4.ip packetDropNoRouteFound:vector(packetBytes) ETV
attr interpolationmode none
attr source packetDropReasonIsNoRouteFound(packetDropped)
attr title "packet drop: no route found, vector(packetBytes)"
vector 215 Scenario.node[23].ipv4.ip packetDropNoRouteFound:vector(packetBytes) ETV
attr interpolationmode none
attr source packetDropReasonIsNoRouteFound(packetDropped)
attr title "packet drop: no route found, vector(packetBytes)"
vector 216 Scenario.node[24].ipv4.ip packetDropNoRouteFound:vector(packetBytes) ETV
attr interpolationmode none
attr source packetDropReasonIsNoRouteFound(packetDropped)
attr title "packet drop: no route found, vector(packetBytes)"
vector 217 Scenario.node[25].ipv4.ip packetDropNoRouteFound:vector(packetBytes) ETV
attr interpolationmode none
attr source packetDropReasonIsNoRouteFound(packetDropped)
attr title "packet drop: no route found, vector(packetBytes)"
vector 218 Scenario.node[26].ipv4.ip packetDropNoRouteFound:vector(packetBytes) ETV
attr interpolationmode none
attr source packetDropReasonIsNoRouteFound(packetDropped)
attr title "packet drop: no route found, vector(packetBytes)"
vector 219 Scenario.node[27].ipv4.ip packetDropNoRouteFound:vector(packetBytes) ETV
attr interpolationmode none
attr source packetDropReasonIsNoRouteFound(packetDropped)
attr title "packet drop: no route found, vector(packetBytes)"
vector 220 Scenario.node[28].ipv4.ip packetDropNoRouteFound:vector(packetBytes) ETV
attr interpolationmode none
attr source packetDropReasonIsNoRouteFound(packetDropped)
attr title "packet drop: no route found, vector(packetBytes)"
vector 221 Scenario.node[29].ipv4.ip packetDropNoRouteFound:vector(packetBytes) ETV
attr interpolationmode none
attr source packetDropReasonIsNoRouteFound(packetDropped)
attr title "packet drop: no route found, vector(packetBytes)"
vector 222 Scenario.node[30].wlan[0].radio radioMode:vector ETV
attr interpolationmode sample-hold
attr source radioModeChanged
attr title "Radio mode, vector"
vector 223 Scenario.node[30].wlan[0].radio radioChannel:vector ETV
attr interpolationmode sample-hold
attr source radioChannelChanged
attr title "Radio channel, vector"
vector 224 Scenario.node[30].wlan[0].radio receptionState:vector ETV
attr interpolationmode sample-hold
attr source receptionStateChanged
attr title "Radio reception state, vector"
vector 225 Scenario.node[30].wlan[0].mac.dcf.recoveryProcedure contentionWindowChanged:vector ETV
attr interpolationmode sample-hold
attr title "contention window, vector"
vector 226 Scenario.node[31].wlan[0].radio radioMode:vector ETV
attr interpolationmode sample-hold
attr source radioModeChanged
attr title "Radio mode, vector"
vector 227 Scenario.node[31].wlan[0].radio radioChannel:vector ETV
attr interpolationmode sample-hold
attr source radioChannelChanged
attr title "Radio channel, vector"
vector 228 Scenario.node[31].wlan[0].radio receptionState:vector ETV
attr interpolationmode sample-hold
attr source receptionStateChanged
attr title "Radio reception state, vector"
vector 229 Scenario.node[31].wlan[0].mac.dcf.recoveryProcedure contentionWindowChanged:vector ETV
attr interpolationmode sample-hold
attr title "contention window, vector"
vector 230 Scenario.node[32].wlan[0].radio radioMode:vector ETV
attr interpolationmode sample-hold
attr source radioModeChanged
attr title "Radio mode, vector"
vector 231 Scenario.node[32].wlan[0].radio radioChannel:vector ETV
attr interpolationmode sample-hold
attr source radioChannelChanged
attr title "Radio channel, vector"
vector 232 Scenario.node[32].wlan[0].radio receptionState:vector ETV
attr interpolationmode sample-hold
attr source receptionStateChanged
attr title "Radio reception state, vector"
vector 233 Scenario.node[32].wlan[0].mac.dcf.recoveryProcedure contentionWindowChanged:vector ETV
attr interpolationmode sample-hold
attr title "contention window, vector"
vector 234 Scenario.node[33].wlan[0].radio radioMode:vector ETV
attr interpolationmode sample-hold
attr source radioModeChanged
attr title "Radio mode, vector"
vector 235 Scenario.node[33].wlan[0].radio radioChannel:vector ETV
attr interpolationmode sample-hold
attr source radioChannelChanged
attr title "Radio channel, vector"
vector 236 Scenario.node[33].wlan[0].radio receptionState:vector ETV
attr interpolationmode sample-hold
attr source receptionStateChanged
attr title "Radio reception state, vector"
vector 237 Scenario.node[33].wlan[0].mac.dcf.recoveryProcedure contentionWindowChanged:vector ETV
attr interpolationmode sample-hold
attr title "contention window, vector"
vector 238 Scenario.node[34].wlan[0].radio radioMode:vector ETV
attr interpolationmode sample-hold
attr source radioModeChanged
attr title "Radio mode, vector"
vector 239 Scenario.node[34].wlan[0].radio radioChannel:vector ETV
attr interpolationmode sample-hold
attr source radioChannelChanged
attr title "Radio channel, vector"
vector 240 Scenario.node[34].wlan[0].radio receptionState:vector ETV
attr interpolationmode sample-hold
attr source receptionStateChanged
attr title "Radio reception state, vector"
vector 241 Scenario.node[34].wlan[0].mac.dcf.recoveryProcedure contentionWindowChanged:vector ETV
attr interpolationmode sample-hold
attr title "contention window, vector"
vector 242 Scenario.node[35].wlan[0].radio radioMode:vector ETV
attr interpolationmode sample-hold
attr source radioModeChanged
attr title "Radio mode, vector"
vector 243 Scenario.node[35].wlan[0].radio radioChannel:vector ETV
attr interpolationmode sample-hold
attr source radioChannelChanged
attr title "Radio channel, vector"
vector 244 Scenario.node[35].wlan[0].radio receptionState:vector ETV
attr interpolationmode sample-hold
attr source receptionStateChanged
attr title "Radio reception state, vector"
vector 245 Scenario.node[35].wlan[0].mac.dcf.recoveryProcedure contentionWindowChanged:vector ETV
attr interpolationmode sample-hold
attr title "contention window, vector"
vector 246 Scenario.node[30].app[0] pingTxSeq:vector ETV
attr interpolationmode none
attr title "ping tx seq, vector"
vector 247 Scenario.node[30].app[1] pingTxSeq:vector ETV
attr interpolationmode none
attr title "ping tx seq, vector"
vector 248 Scenario.node[31].app[0] pingTxSeq:vector ETV
attr interpolationmode none
attr title "ping tx seq, vector"
vector 249 Scenario.node[31].app[1] pingTxSeq:vector ETV
attr interpolationmode none
attr title "ping tx seq, vector"
vector 250 Scenario.node[32].app[0] pingTxSeq:vector ETV
attr interpolationmode none
attr title "ping tx seq, vector"
vector 251 Scenario.node[32].app[1] pingTxSeq:vector ETV
attr interpolationmode none
attr title "ping tx seq, vector"
vector 252 Scenario.node[33].app[0] pingTxSeq:vector ETV
attr interpolationmode none
attr title "ping tx seq, vector"
vector 253 Scenario.node[33].app[1] pingTxSeq:vector ETV
attr interpolationmode none
attr title "ping tx seq, vector"
vector 254 Scenario.node[34].app[0] pingTxSeq:vector ETV
attr interpolationmode none
attr title "ping tx seq, vector"
vector 255 Scenario.node[34].app[1] pingTxSeq:vector ETV
attr interpolationmode none
attr title "ping tx seq, vector"
vector 256 Scenario.node[35].app[0] pingTxSeq:vector ETV
attr interpolationmode none
attr title "ping tx seq, vector"
vector 257 Scenario.node[35].app[1] pingTxSeq:vector ETV
attr interpolationmode none
attr title "ping tx seq, vector"
vector 258 Scenario.node[30].ipv4.ip packetDropNoRouteFound:vector(packetBytes) ETV
attr interpolationmode none
attr source packetDropReasonIsNoRouteFound(packetDropped)
attr title "packet drop: no route found, vector(packetBytes)"
vector 259 Scenario.node[31].ipv4.ip packetDropNoRouteFound:vector(packetBytes) ETV
attr interpolationmode none
attr source packetDropReasonIsNoRouteFound(packetDropped)
attr title "packet drop: no route found, vector(packetBytes)"
vector 260 Scenario.node[32].ipv4.ip packetDropNoRouteFound:vector(packetBytes) ETV
attr interpolationmode none
attr source packetDropReasonIsNoRouteFound(packetDropped)
attr title "packet drop: no route found, vector(packetBytes)"
vector 261 Scenario.node[33].ipv4.ip packetDropNoRouteFound:vector(packetBytes) ETV
attr interpolationmode none
attr source packetDropReasonIsNoRouteFound(packetDropped)
attr title "packet drop: no route found, vector(packetBytes)"
vector 262 Scenario.node[34].ipv4.ip packetDropNoRouteFound:vector(packetBytes) ETV
attr interpolationmode none
attr source packetDropReasonIsNoRouteFound(packetDropped)
attr title "packet drop: no route found, vector(packetBytes)"
vector 263 Scenario.node[35].ipv4.ip packetDropNoRouteFound:vector(packetBytes) ETV
attr interpolationmode none
attr source packetDropReasonIsNoRouteFound(packetDropped)
attr title "packet drop: no route found, vector(packetBytes)"
vector 264 Scenario.node[36].wlan[0].radio radioMode:vector ETV
attr interpolationmode sample-hold
attr source radioModeChanged
attr title "Radio mode, vector"
vector 265 Scenario.node[36].wlan[0].radio radioChannel:vector ETV
attr interpolationmode sample-hold
attr source radioChannelChanged
attr title "Radio channel, vector"
vector 266 Scenario.node[36].wlan[0].radio receptionState:vector ETV
attr interpolationmode sample-hold
attr source receptionStateChanged
attr title "Radio reception state, vector"
vector 267 Scenario.node[36].wlan[0].mac.dcf.recoveryProcedure contentionWindowChanged:vector ETV
attr interpolationmode sample-hold
attr title "contention window, vector"
vector 268 Scenario.node[37].wlan[0].radio radioMode:vector ETV
attr interpolationmode sample-hold
attr source radioModeChanged
attr title "Radio mode, vector"
vector 269 Scenario.node[37].wlan[0].radio radioChannel:vector ETV
attr interpolationmode sample-hold
attr source radioChannelChanged
attr title "Radio channel, vector"
vector 270 Scenario.node[37].wlan[0].radio receptionState:vector ETV
attr interpolationmode sample-hold
attr source receptionStateChanged
attr title "Radio reception state, vector"
vector 271 Scenario.node[37].wlan[0].mac.dcf.recoveryProcedure contentionWindowChanged:vector ETV
attr interpolationmode sample-hold
attr title "contention window, vector"
vector 272 Scenario.node[38].wlan[0].radio radioMode:vector ETV
attr interpolationmode sample-hold
attr source radioModeChanged
attr title "Radio mode, vector"
vector 273 Scenario.node[38].wlan[0].radio radioChannel:vector ETV
attr interpolationmode sample-hold
attr source radioChannelChanged
attr title "Radio channel, vector"
vector 274 Scenario.node[38].wlan[0].radio receptionState:vector ETV
attr interpolationmode sample-hold
attr source receptionStateChanged
attr title "Radio reception state, vector"
vector 275 Scenario.node[38].wlan[0].mac.dcf.recoveryProcedure contentionWindowChanged:vector ETV
attr interpolationmode sample-hold
attr title "contention window, vector"
vector 276 Scenario.node[39].wlan[0].radio radioMode:vector ETV
attr interpolationmode sample-hold
attr source radioModeChanged
attr title "Radio mode, vector"
vector 277 Scenario.node[39].wlan[0].radio radioChannel:vector ETV
attr interpolationmode sample-hold
attr source radioChannelChanged
attr title "Radio channel, vector"
vector 278 Scenario.node[39].wlan[0].radio receptionState:vector ETV
attr interpolationmode sample-hold
attr source receptionStateChanged
attr title "Radio reception state, vector"
vector 279 Scenario.node[39].wlan[0].mac.dcf.recoveryProcedure contentionWindowChanged:vector ETV
attr interpolationmode sample-hold
attr title "contention window, vector"
vector 280 Scenario.node[40].wlan[0].radio radioMode:vector ETV
attr interpolationmode sample-hold
attr source radioModeChanged
attr title "Radio mode, vector"
vector 281 Scenario.node[40].wlan[0].radio radioChannel:vector ETV
attr interpolationmode sample-hold
attr source radioChannelChanged
attr title "Radio channel, vector"
vector 282 Scenario.node[40].wlan[0].radio receptionState:vector ETV
attr interpolationmode sample-hold
attr source receptionStateChanged
attr title "Radio reception state, vector"
vector 283 Scenario.node[40].wlan[0].mac.dcf.recoveryProcedure contentionWindowChanged:vector ETV
attr interpolationmode sample-hold
attr title "contention window, vector"
vector 284 Scenario.node[41].wlan[0].radio radioMode:vector ETV
attr interpolationmode sample-hold
attr source radioModeChanged
attr title "Radio mode, vector"
vector 285 Scenario.node[41].wlan[0].radio radioChannel:vector ETV
attr interpolationmode sample-hold
attr source radioChannelChanged
attr title "Radio channel, vector"
vector 286 Scenario.node[41].wlan[0].radio receptionState:vector ETV
attr interpolationmode sample-hold
attr source receptionStateChanged
attr title "Radio reception state, vector"
vector 287 Scenario.node[41].wlan[0].mac.dcf.recoveryProcedure contentionWindowChanged:vector ETV
attr interpolationmode sample-hold
attr title "contention window, vector"
vector 288 Scenario.node[36].app[0] pingTxSeq:vector ETV
attr interpolationmode none
attr title "ping tx seq, vector"
vector 289 Scenario.node[36].app[1] pingTxSeq:vector ETV
attr interpolationmode none
attr title "ping tx seq, vector"
vector 290 Scenario.node[37].app[0] pingTxSeq:vector ETV
attr interpolationmode none
attr title "ping tx seq, vector"
vector 291 Scenario.node[37].app[1] pingTxSeq:vector ETV
attr interpolationmode none
attr title "ping tx seq, vector"
vector 292 Scenario.node[38].app[0] pingTxSeq:vector ETV
attr interpolationmode none
attr title "ping tx seq, vector"
vector 293 Scenario.node[38].app[1] pingTxSeq:vector ETV
attr interpolationmode none
attr title "ping tx seq, vector"
vector 294 Scenario.node[39].app[0] pingTxSeq:vector ETV
attr interpolationmode none
attr title "ping tx seq, vector"
vector 295 Scenario.node[39].app[1] pingTxSeq:vector ETV
attr interpolationmode none
attr title "ping tx seq, vector"
vector 296 Scenario.node[40].app[0] pingTxSeq:vector ETV
attr interpolationmode none
attr title "ping tx seq, vector"
vector 297 Scenario.node[40].app[1] pingTxSeq:vector ETV
attr interpolationmode none
attr title "ping tx seq, vector"
vector 298 Scenario.node[41].app[0] pingTxSeq:vector ETV
attr interpolationmode none
attr title "ping tx seq, vector"
vector 299 Scenario.node[41].app[1] pingTxSeq:vector ETV
attr interpolationmode none
attr title "ping tx seq, vector"
vector 300 Scenario.node[36].ipv4.ip packetDropNoRouteFound:vector(packetBytes) ETV
attr interpolationmode none
attr source packetDropReasonIsNoRouteFound(packetDropped)
attr title "packet drop: no route found, vector(packetBytes)"
vector 301 Scenario.node[37].ipv4.ip packetDropNoRouteFound:vector(packetBytes) ETV
attr interpolationmode none
attr source packetDropReasonIsNoRouteFound(packetDropped)
attr title "packet drop: no route found, vector(packetBytes)"
vector 302 Scenario.node[38].ipv4.ip packetDropNoRouteFound:vector(packetBytes) ETV
attr interpolationmode none
attr source packetDropReasonIsNoRouteFound(packetDropped)
attr title "packet drop: no route found, vector(packetBytes)"
vector 303 Scenario.node[39].ipv4.ip packetDropNoRouteFound:vector(packetBytes) ETV
attr interpolationmode none
attr source packetDropReasonIsNoRouteFound(packetDropped)
attr title "packet drop: no route found, vector(packetBytes)"
vector 304 Scenario.node[40].ipv4.ip packetDropNoRouteFound:vector(packetBytes) ETV
attr interpolationmode none
attr source packetDropReasonIsNoRouteFound(packetDropped)
attr title "packet drop: no route found, vector(packetBytes)"
vector 305 Scenario.node[41].ipv4.ip packetDropNoRouteFound:vector(packetBytes) ETV
attr interpolationmode none
attr source packetDropReasonIsNoRouteFound(packetDropped)
attr title "packet drop: no route found, vector(packetBytes)"
vector 306 Scenario.node[42].wlan[0].radio radioMode:vector ETV
attr interpolationmode sample-hold
attr source radioModeChanged
attr title "Radio mode, vector"
vector 307 Scenario.node[42].wlan[0].radio radioChannel:vector ETV
attr interpolationmode sample-hold
attr source radioChannelChanged
attr title "Radio channel, vector"
vector 308 Scenario.node[42].wlan[0].radio receptionState:vector ETV
attr interpolationmode sample-hold
attr source receptionStateChanged
attr title "Radio reception state, vector"
vector 309 Scenario.node[42].wlan[0].mac.dcf.recoveryProcedure contentionWindowChanged:vector ETV
attr interpolationmode sample-hold
attr title "contention window, vector"
vector 310 Scenario.node[43].wlan[0].radio radioMode:vector ETV
attr interpolationmode sample-hold
attr source radioModeChanged
attr title "Radio mode, vector"
vector 311 Scenario.node[43].wlan[0].radio radioChannel:vector ETV
attr interpolationmode sample-hold
attr source radioChannelChanged
attr title "Radio channel, vector"
vector 312 Scenario.node[43].wlan[0].radio receptionState:vector ETV
attr interpolationmode sample-hold
attr source receptionStateChanged
attr title "Radio reception state, vector"
vector 313 Scenario.node[43].wlan[0].mac.dcf.recoveryProcedure contentionWindowChanged:vector ETV
attr interpolationmode sample-hold
attr title "contention window, vector"
vector 314 Scenario.node[44].wlan[0].radio radioMode:vector ETV
attr interpolationmode sample-hold
attr source radioModeChanged
attr title "Radio mode, vector"
vector 315 Scenario.node[44].wlan[0].radio radioChannel:vector ETV
attr interpolationmode sample-hold
attr source radioChannelChanged
attr title "Radio channel, vector"
vector 316 Scenario.node[44].wlan[0].radio receptionState:vector ETV
attr interpolationmode sample-hold
attr source receptionStateChanged
attr title "Radio reception state, vector"
vector 317 Scenario.node[44].wlan[0].mac.dcf.recoveryProcedure contentionWindowChanged:vector ETV
attr interpolationmode sample-hold
attr title "contention window, vector"
vector 318 Scenario.node[45].wlan[0].radio radioMode:vector ETV
attr interpolationmode sample-hold
attr source radioModeChanged
attr title "Radio mode, vector"
vector 319 Scenario.node[45].wlan[0].radio radioChannel:vector ETV
attr interpolationmode sample-hold
attr source radioChannelChanged
attr title "Radio channel, vector"
vector 320 Scenario.node[45].wlan[0].radio receptionState:vector ETV
attr interpolationmode sample-hold
attr source receptionStateChanged
attr title "Radio reception state, vector"
vector 321 Scenario.node[45].wlan[0].mac.dcf.recoveryProcedure contentionWindowChanged:vector ETV
attr interpolationmode sample-hold
attr title "contention window, vector"
vector 322 Scenario.node[46].wlan[0].radio radioMode:vector ETV
attr interpolationmode sample-hold
attr source radioModeChanged
attr title "Radio mode, vector"
vector 323 Scenario.node[46].wlan[0].radio radioChannel:vector ETV
attr interpolationmode sample-hold
attr source radioChannelChanged
attr title "Radio channel, vector"
vector 324 Scenario.node[46].wlan[0].radio receptionState:vector ETV
attr interpolationmode sample-hold
attr source receptionStateChanged
attr title "Radio reception state, vector"
vector 325 Scenario.node[46].wlan[0].mac.dcf.recoveryProcedure contentionWindowChanged:vector ETV
attr interpolationmode sample-hold
attr title "contention window, vector"
vector 326 Scenario.node[47].wlan[0].radio radioMode:vector ETV
attr interpolationmode sample-hold
attr source radioModeChanged
attr title "Radio mode, vector"
vector 327 Scenario.node[47].wlan[0].radio radioChannel:vector ETV
attr interpolationmode sample-hold
attr source radioChannelChanged
attr title "Radio channel, vector"
vector 328 Scenario.node[47].wlan[0].radio receptionState:vector ETV
attr interpolationmode sample-hold
attr source receptionStateChanged
attr title "Radio reception state, vector"
vector 329 Scenario.node[47].wlan[0].mac.dcf.recoveryProcedure contentionWindowChanged:vector ETV
attr interpolationmode sample-hold
attr title "contention window, vector"
vector 330 Scenario.node[48].wlan[0].radio radioMode:vector ETV
attr interpolationmode sample-hold
attr source radioModeChanged
attr title "Radio mode, vector"
vector 331 Scenario.node[48].wlan[0].radio radioChannel:vector ETV
attr interpolationmode sample-hold
attr source radioChannelChanged
attr title "Radio channel, vector"
vector 332 Scenario.node[48].wlan[0].radio receptionState:vector ETV
attr interpolationmode sample-hold
attr source receptionStateChanged
attr title "Radio reception state, vector"
vector 333 Scenario.node[48].wlan[0].mac.dcf.recoveryProcedure contentionWindowChanged:vector ETV
attr interpolationmode sample-hold
attr title "contention window, vector"
vector 334 Scenario.node[42].app[0] pingTxSeq:vector ETV
attr interpolationmode none
attr title "ping tx seq, vector"
vector 335 Scenario.node[42].app[1] pingTxSeq:vector ETV
attr interpolationmode none
attr title "ping tx seq, vector"
vector 336 Scenario.node[43].app[0] pingTxSeq:vector ETV
attr interpolationmode none
attr title "ping tx seq, vector"
vector 337 Scenario.node[43].app[1] pingTxSeq:vector ETV
attr interpolationmode none
attr title "ping tx seq, vector"
vector 338 Scenario.node[44].app[0] pingTxSeq:vector ETV
attr interpolationmode none
attr title "ping tx seq, vector"
vector 339 Scenario.node[44].app[1] pingTxSeq:vector ETV
attr interpolationmode none
attr title "ping tx seq, vector"
vector 340 Scenario.node[45].app[0] pingTxSeq:vector ETV
attr interpolationmode none
attr title "ping tx seq, vector"
vector 341 Scenario.node[45].app[1] pingTxSeq:vector ETV
attr interpolationmode none
attr title "ping tx seq, vector"
vector 342 Scenario.node[46].app[0] pingTxSeq:vector ETV
attr interpolationmode none
attr title "ping tx seq, vector"
vector 343 Scenario.node[46].app[1] pingTxSeq:vector ETV
attr interpolationmode none
attr title "ping tx seq, vector"
vector 344 Scenario.node[47].app[0] pingTxSeq:vector ETV
attr interpolationmode none
attr title "ping tx seq, vector"
vector 345 Scenario.node[47].app[1] pingTxSeq:vector ETV
attr interpolationmode none
attr title "ping tx seq, vector"
vector 346 Scenario.node[48].app[0] pingTxSeq:vector ETV
attr interpolationmode none
attr title "ping tx seq, vector"
vector 347 Scenario.node[48].app[1] pingTxSeq:vector ETV
attr interpolationmode none
attr title "ping tx seq, vector"
vector 348 Scenario.node[42].ipv4.ip packetDropNoRouteFound:vector(packetBytes) ETV
attr interpolationmode none
attr source packetDropReasonIsNoRouteFound(packetDropped)
attr title "packet drop: no route found, vector(packetBytes)"
vector 349 Scenario.node[43].ipv4.ip packetDropNoRouteFound:vector(packetBytes) ETV
attr interpolationmode none
attr source packetDropReasonIsNoRouteFound(packetDropped)
attr title "packet drop: no route found, vector(packetBytes)"
vector 350 Scenario.node[44].ipv4.ip packetDropNoRouteFound:vector(packetBytes) ETV
attr interpolationmode none
attr source packetDropReasonIsNoRouteFound(packetDropped)
attr title "packet drop: no route found, vector(packetBytes)"
vector 351 Scenario.node[45].ipv4.ip packetDropNoRouteFound:vector(packetBytes) ETV
attr interpolationmode none
attr source packetDropReasonIsNoRouteFound(packetDropped)
attr title "packet drop: no route found, vector(packetBytes)"
vector 352 Scenario.node[46].ipv4.ip packetDropNoRouteFound:vector(packetBytes) ETV
attr interpolationmode none
attr source packetDropReasonIsNoRouteFound(packetDropped)
attr title "packet drop: no route found, vector(packetBytes)"
vector 353 Scenario.node[47].ipv4.ip packetDropNoRouteFound:vector(packetBytes) ETV
attr interpolationmode none
attr source packetDropReasonIsNoRouteFound(packetDropped)
attr title "packet drop: no route found, vector(packetBytes)"
vector 354 Scenario.node[48].ipv4.ip packetDropNoRouteFound:vector(packetBytes) ETV
attr interpolationmode none
attr source packetDropReasonIsNoRouteFound(packetDropped)
attr title "packet drop: no route found, vector(packetBytes)"
vector 355 Scenario.node[49].wlan[0].radio radioMode:vector ETV
attr interpolationmode sample-hold
attr source radioModeChanged
attr title "Radio mode, vector"
vector 356 Scenario.node[49].wlan[0].radio radioChannel:vector ETV
attr interpolationmode sample-hold
attr source radioChannelChanged
attr title "Radio channel, vector"
vector 357 Scenario.node[49].wlan[0].radio receptionState:vector ETV
attr interpolationmode sample-hold
attr source receptionStateChanged
attr title "Radio reception state, vector"
vector 358 Scenario.node[49].wlan[0].mac.dcf.recoveryProcedure contentionWindowChanged:vector ETV
attr interpolationmode sample-hold
attr title "contention window, vector"
vector 359 Scenario.node[50].wlan[0].radio radioMode:vector ETV
attr interpolationmode sample-hold
attr source radioModeChanged
attr title "Radio mode, vector"
vector 360 Scenario.node[50].wlan[0].radio radioChannel:vector ETV
attr interpolationmode sample-hold
attr source radioChannelChanged
attr title "Radio channel, vector"
vector 361 Scenario.node[50].wlan[0].radio receptionState:vector ETV
attr interpolationmode sample-hold
attr source receptionStateChanged
attr title "Radio reception state, vector"
vector 362 Scenario.node[50].wlan[0].mac.dcf.recoveryProcedure contentionWindowChanged:vector ETV
attr interpolationmode sample-hold
attr title "contention window, vector"
vector 363 Scenario.node[51].wlan[0].radio radioMode:vector ETV
attr interpolationmode sample-hold
attr source radioModeChanged
attr title "Radio mode, vector"
vector 364 Scenario.node[51].wlan[0].radio radioChannel:vector ETV
attr interpolationmode sample-hold
attr source radioChannelChanged
attr title "Radio channel, vector"
vector 365 Scenario.node[51].wlan[0].radio receptionState:vector ETV
attr interpolationmode sample-hold
attr source receptionStateChanged
attr title "Radio reception state, vector"
vector 366 Scenario.node[51].wlan[0].mac.dcf.recoveryProcedure contentionWindowChanged:vector ETV
attr interpolationmode sample-hold
attr title "contention window, vector"
vector 367 Scenario.node[52].wlan[0].radio radioMode:vector ETV
attr interpolationmode sample-hold
attr source radioModeChanged
attr title "Radio mode, vector"
vector 368 Scenario.node[52].wlan[0].radio radioChannel:vector ETV
attr interpolationmode sample-hold
attr source radioChannelChanged
attr title "Radio channel, vector"
vector 369 Scenario.node[52].wlan[0].radio receptionState:vector ETV
attr interpolationmode sample-hold
attr source receptionStateChanged
attr title "Radio reception state, vector"
vector 370 Scenario.node[52].wlan[0].mac.dcf.recoveryProcedure contentionWindowChanged:vector ETV
attr interpolationmode sample-hold
attr title "contention window, vector"
vector 371 Scenario.node[53].wlan[0].radio radioMode:vector ETV
attr interpolationmode sample-hold
attr source radioModeChanged
attr title "Radio mode, vector"
vector 372 Scenario.node[53].wlan[0].radio radioChannel:vector ETV
attr interpolationmode sample-hold
attr source radioChannelChanged
attr title "Radio channel, vector"
vector 373 Scenario.node[53].wlan[0].radio receptionState:vector ETV
attr interpolationmode sample-hold
attr source receptionStateChanged
attr title "Radio reception state, vector"
vector 374 Scenario.node[53].wlan[0].mac.dcf.recoveryProcedure contentionWindowChanged:vector ETV
attr interpolationmode sample-hold
attr title "contention window, vector"
vector 375 Scenario.node[49].app[0] pingTxSeq:vector ETV
attr interpolationmode none
attr title "ping tx seq, vector"
vector 376 Scenario.node[49].app[1] pingTxSeq:vector ETV
attr interpolationmode none
attr title "ping tx seq, vector"
vector 377 Scenario.node[50].app[0] pingTxSeq:vector ETV
attr interpolationmode none
attr title "ping tx seq, vector"
vector 378 Scenario.node[50].app[1] pingTxSeq:vector ETV
attr interpolationmode none
attr title "ping tx seq, vector"
vector 379 Scenario.node[51].app[0] pingTxSeq:vector ETV
attr interpolationmode none
attr title "ping tx seq, vector"
vector 380 Scenario.node[51].app[1] pingTxSeq:vector ETV
attr interpolationmode none
attr title "ping tx seq, vector"
vector 381 Scenario.node[52].app[0] pingTxSeq:vector ETV
attr interpolationmode none
attr title "ping tx seq, vector"
vector 382 Scenario.node[52].app[1] pingTxSeq:vector ETV
attr interpolationmode none
attr title "ping tx seq, vector"
vector 383 Scenario.node[53].app[0] pingTxSeq:vector ETV
attr interpolationmode none
attr title "ping tx seq, vector"
vector 384 Scenario.node[53].app[1] pingTxSeq:vector ETV
attr interpolationmode none
attr title "ping tx seq, vector"
vector 385 Scenario.node[49].ipv4.ip packetDropNoRouteFound:vector(packetBytes) ETV
attr interpolationmode none
attr source packetDropReasonIsNoRouteFound(packetDropped)
attr title "packet drop: no route found, vector(packetBytes)"
vector 386 Scenario.node[50].ipv4.ip packetDropNoRouteFound:vector(packetBytes) ETV
attr interpolationmode none
attr source packetDropReasonIsNoRouteFound(packetDropped)
attr title "packet drop: no route found, vector(packetBytes)"
vector 387 Scenario.node[51].ipv4.ip packetDropNoRouteFound:vector(packetBytes) ETV
attr interpolationmode none
attr source packetDropReasonIsNoRouteFound(packetDropped)
attr title "packet drop: no route found, vector(packetBytes)"
vector 388 Scenario.node[52].ipv4.ip packetDropNoRouteFound:vector(packetBytes) ETV
attr interpolationmode none
attr source packetDropReasonIsNoRouteFound(packetDropped)
attr title "packet drop: no route found, vector(packetBytes)"
vector 389 Scenario.node[53].ipv4.ip packetDropNoRouteFound:vector(packetBytes) ETV
attr interpolationmode none
attr source packetDropReasonIsNoRouteFound(packetDropped)
attr title "packet drop: no route found, vector(packetBytes)"
vector 390 Scenario.node[54].wlan[0].radio radioMode:vector ETV
attr interpolationmode sample-hold
attr source radioModeChanged
attr title "Radio mode, vector"
vector 391 Scenario.node[54].wlan[0].radio radioChannel:vector ETV
attr interpolationmode sample-hold
attr source radioChannelChanged
attr title "Radio channel, vector"
vector 392 Scenario.node[54].wlan[0].radio receptionState:vector ETV
attr interpolationmode sample-hold
attr source receptionStateChanged
attr title "Radio reception state, vector"
vector 393 Scenario.node[54].wlan[0].mac.dcf.recoveryProcedure contentionWindowChanged:vector ETV
attr interpolationmode sample-hold
attr title "contention window, vector"
vector 394 Scenario.node[55].wlan[0].radio radioMode:vector ETV
attr interpolationmode sample-hold
attr source radioModeChanged
attr title "Radio mode, vector"
vector 395 Scenario.node[55].wlan[0].radio radioChannel:vector ETV
attr interpolationmode sample-hold
attr source radioChannelChanged
attr title "Radio channel, vector"
vector 396 Scenario.node[55].wlan[0].radio receptionState:vector ETV
attr interpolationmode sample-hold
attr source receptionStateChanged
attr title "Radio reception state, vector"
vector 397 Scenario.node[55].wlan[0].mac.dcf.recoveryProcedure contentionWindowChanged:vector ETV
attr interpolationmode sample-hold
attr title "contention window, vector"
vector 398 Scenario.node[56].wlan[0].radio radioMode:vector ETV
attr interpolationmode sample-hold
attr source radioModeChanged
attr title "Radio mode, vector"
vector 399 Scenario.node[56].wlan[0].radio radioChannel:vector ETV
attr interpolationmode sample-hold
attr source radioChannelChanged
attr title "Radio channel, vector"
vector 400 Scenario.node[56].wlan[0].radio receptionState:vector ETV
attr interpolationmode sample-hold
attr source receptionStateChanged
attr title "Radio reception state, vector"
vector 401 Scenario.node[56].wlan[0].mac.dcf.recoveryProcedure contentionWindowChanged:vector ETV
attr interpolationmode sample-hold
attr title "contention window, vector"
vector 402 Scenario.node[57].wlan[0].radio radioMode:vector ETV
attr interpolationmode sample-hold
attr source radioModeChanged
attr title "Radio mode, vector"
vector 403 Scenario.node[57].wlan[0].radio radioChannel:vector ETV
attr interpolationmode sample-hold
attr source radioChannelChanged
attr title "Radio channel, vector"
vector 404 Scenario.node[57].wlan[0].radio receptionState:vector ETV
attr interpolationmode sample-hold
attr source receptionStateChanged
attr title "Radio reception state, vector"
vector 405 Scenario.node[57].wlan[0].mac.dcf.recoveryProcedure contentionWindowChanged:vector ETV
attr interpolationmode sample-hold
attr title "contention window, vector"
vector 406 Scenario.node[58].wlan[0].radio radioMode:vector ETV
attr interpolationmode sample-hold
attr source radioModeChanged
attr title "Radio mode, vector"
vector 407 Scenario.node[58].wlan[0].radio radioChannel:vector ETV
attr interpolationmode sample-hold
attr source radioChannelChanged
attr title "Radio channel, vector"
vector 408 Scenario.node[58].wlan[0].radio receptionState:vector ETV
attr interpolationmode sample-hold
attr source receptionStateChanged
attr title "Radio reception state, vector"
vector 409 Scenario.node[58].wlan[0].mac.dcf.recoveryProcedure contentionWindowChanged:vector ETV
attr interpolationmode sample-hold
attr title "contention window, vector"
vector 410 Scenario.node[59].wlan[0].radio radioMode:vector ETV
attr interpolationmode sample-hold
attr source radioModeChanged
attr title "Radio mode, vector"
vector 411 Scenario.node[59].wlan[0].radio radioChannel:vector ETV
attr interpolationmode sample-hold
attr source radioChannelChanged
attr title "Radio channel, vector"
vector 412 Scenario.node[59].wlan[0].radio receptionState:vector ETV
attr interpolationmode sample-hold
attr source receptionStateChanged
attr title "Radio reception state, vector"
vector 413 Scenario.node[59].wlan[0].mac.dcf.recoveryProcedure contentionWindowChanged:vector ETV
attr interpolationmode sample-hold
attr title "contention window, vector"
vector 414 Scenario.node[54].app[0] pingTxSeq:vector ETV
attr interpolationmode none
attr title "ping tx seq, vector"
vector 415 Scenario.node[54].app[1] pingTxSeq:vector ETV
attr interpolationmode none
attr title "ping tx seq, vector"
vector 416 Scenario.node[55].app[0] pingTxSeq:vector ETV
attr interpolationmode none
attr title "ping tx seq, vector"
vector 417 Scenario.node[55].app[1] pingTxSeq:vector ETV
attr interpolationmode none
attr title "ping tx seq, vector"
vector 418 Scenario.node[56].app[0] pingTxSeq:vector ETV
attr interpolationmode none
attr title "ping tx seq, vector"
vector 419 Scenario.node[56].app[1] pingTxSeq:vector ETV
attr interpolationmode none
attr title "ping tx seq, vector"
vector 420 Scenario.node[57].app[0] pingTxSeq:vector ETV
attr interpolationmode none
attr title "ping tx seq, vector"
vector 421 Scenario.node[57].app[1] pingTxSeq:vector ETV
attr interpolationmode none
attr title "ping tx seq, vector"
vector 422 Scenario.node[58].app[0] pingTxSeq:vector ETV
attr interpolationmode none
attr title "ping tx seq, vector"
vector 423 Scenario.node[58].app[1] pingTxSeq:vector ETV
attr interpolationmode none
attr title "ping tx seq, vector"
vector 424 Scenario.node[59].app[0] pingTxSeq:vector ETV
attr interpolationmode none
attr title "ping tx seq, vector"
vector 425 Scenario.node[59].app[1] pingTxSeq:vector ETV
attr interpolationmode none
attr title "ping tx seq, vector"
vector 426 Scenario.node[54].ipv4.ip packetDropNoRouteFound:vector(packetBytes) ETV
attr interpolationmode none
attr source packetDropReasonIsNoRouteFound(packetDropped)
attr title "packet drop: no route found, vector(packetBytes)"
vector 427 Scenario.node[55].ipv4.ip packetDropNoRouteFound:vector(packetBytes) ETV
attr interpolationmode none
attr source packetDropReasonIsNoRouteFound(packetDropped)
attr title "packet drop: no route found, vector(packetBytes)"
vector 428 Scenario.node[56].ipv4.ip packetDropNoRouteFound:vector(packetBytes) ETV
attr interpolationmode none
attr source packetDropReasonIsNoRouteFound(packetDropped)
attr title "packet drop: no route found, vector(packetBytes)"
vector 429 Scenario.node[57].ipv4.ip packetDropNoRouteFound:vector(packetBytes) ETV
attr interpolationmode none
attr source packetDropReasonIsNoRouteFound(packetDropped)
attr title "packet drop: no route found, vector(packetBytes)"
vector 430 Scenario.node[58].ipv4.ip packetDropNoRouteFound:vector(packetBytes) ETV
attr interpolationmode none
attr source packetDropReasonIsNoRouteFound(packetDropped)
attr title "packet drop: no route found, vector(packetBytes)"
vector 431 Scenario.node[59].ipv4.ip packetDropNoRouteFound:vector(packetBytes) ETV
attr interpolationmode none
attr source packetDropReasonIsNoRouteFound(packetDropped)
attr title "packet drop: no route found, vector(packetBytes)"
vector 432 Scenario.node[60].wlan[0].radio radioMode:vector ETV
attr interpolationmode sample-hold
attr source radioModeChanged
attr title "Radio mode, vector"
vector 433 Scenario.node[60].wlan[0].radio radioChannel:vector ETV
attr interpolationmode sample-hold
attr source radioChannelChanged
attr title "Radio channel, vector"
vector 434 Scenario.node[60].wlan[0].radio receptionState:vector ETV
attr interpolationmode sample-hold
attr source receptionStateChanged
attr title "Radio reception state, vector"
vector 435 Scenario.node[60].wlan[0].mac.dcf.recoveryProcedure contentionWindowChanged:vector ETV
attr interpolationmode sample-hold
attr title "contention window, vector"
vector 436 Scenario.node[61].wlan[0].radio radioMode:vector ETV
attr interpolationmode sample-hold
attr source radioModeChanged
attr title "Radio mode, vector"
vector 437 Scenario.node[61].wlan[0].radio radioChannel:vector ETV
attr interpolationmode sample-hold
attr source radioChannelChanged
attr title "Radio channel, vector"
vector 438 Scenario.node[61].wlan[0].radio receptionState:vector ETV
attr interpolationmode sample-hold
attr source receptionStateChanged
attr title "Radio reception state, vector"
vector 439 Scenario.node[61].wlan[0].mac.dcf.recoveryProcedure contentionWindowChanged:vector ETV
attr interpolationmode sample-hold
attr title "contention window, vector"
vector 440 Scenario.node[62].wlan[0].radio radioMode:vector ETV
attr interpolationmode sample-hold
attr source radioModeChanged
attr title "Radio mode, vector"
vector 441 Scenario.node[62].wlan[0].radio radioChannel:vector ETV
attr interpolationmode sample-hold
attr source radioChannelChanged
attr title "Radio channel, vector"
vector 442 Scenario.node[62].wlan[0].radio receptionState:vector ETV
attr interpolationmode sample-hold
attr source receptionStateChanged
attr title "Radio reception state, vector"
vector 443 Scenario.node[62].wlan[0].mac.dcf.recoveryProcedure contentionWindowChanged:vector ETV
attr interpolationmode sample-hold
attr title "contention window, vector"
vector 444 Scenario.node[63].wlan[0].radio radioMode:vector ETV
attr interpolationmode sample-hold
attr source radioModeChanged
attr title "Radio mode, vector"
vector 445 Scenario.node[63].wlan[0].radio radioChannel:vector ETV
attr interpolationmode sample-hold
attr source radioChannelChanged
attr title "Radio channel, vector"
vector 446 Scenario.node[63].wlan[0].radio receptionState:vector ETV
attr interpolationmode sample-hold
attr source receptionStateChanged
attr title "Radio reception state, vector"
vector 447 Scenario.node[63].wlan[0].mac.dcf.recoveryProcedure contentionWindowChanged:vector ETV
attr interpolationmode sample-hold
attr title "contention window, vector"
vector 448 Scenario.node[64].wlan[0].radio radioMode:vector ETV
attr interpolationmode sample-hold
attr source radioModeChanged
attr title "Radio mode, vector"
vector 449 Scenario.node[64].wlan[0].radio radioChannel:vector ETV
attr interpolationmode sample-hold
attr source radioChannelChanged
attr title "Radio channel, vector"
vector 450 Scenario.node[64].wlan[0].radio receptionState:vector ETV
attr interpolationmode sample-hold
attr source receptionStateChanged
attr title "Radio reception state, vector"
vector 451 Scenario.node[64].wlan[0].mac.dcf.recoveryProcedure contentionWindowChanged:vector ETV
attr interpolationmode sample-hold
attr title "contention window, vector"
vector 452 Scenario.node[65].wlan[0].radio radioMode:vector ETV
attr interpolationmode sample-hold
attr source radioModeChanged
attr title "Radio mode, vector"
vector 453 Scenario.node[65].wlan[0].radio radioChannel:vector ETV
attr interpolationmode sample-hold
attr source radioChannelChanged
attr title "Radio channel, vector"
vector 454 Scenario.node[65].wlan[0].radio receptionState:vector ETV
attr interpolationmode sample-hold
attr source receptionStateChanged
attr title "Radio reception state, vector"
vector 455 Scenario.node[65].wlan[0].mac.dcf.recoveryProcedure contentionWindowChanged:vector ETV
attr interpolationmode sample-hold
attr title "contention window, vector"
vector 456 Scenario.node[66].wlan[0].radio radioMode:vector ETV
attr interpolationmode sample-hold
attr source radioModeChanged
attr title "Radio mode, vector"
vector 457 Scenario.node[66].wlan[0].radio radioChannel:vector ETV
attr interpolationmode sample-hold
attr source radioChannelChanged
attr title "Radio channel, vector"
vector 458 Scenario.node[66].wlan[0].radio receptionState:vector ETV
attr interpolationmode sample-hold
attr source receptionStateChanged
attr title "Radio reception state, vector"
vector 459 Scenario.node[66].wlan[0].mac.dcf.recoveryProcedure contentionWindowChanged:vector ETV
attr interpolationmode sample-hold
attr title "contention window, vector"
vector 460 Scenario.node[67].wlan[0].radio radioMode:vector ETV
attr interpolationmode sample-hold
attr source radioModeChanged
attr title "Radio mode, vector"
vector 461 Scenario.node[67].wlan[0].radio radioChannel:vector ETV
attr interpolationmode sample-hold
attr source radioChannelChanged
attr title "Radio channel, vector"
vector 462 Scenario.node[67].wlan[0].radio receptionState:vector ETV
attr interpolationmode sample-hold
attr source receptionStateChanged
attr title "Radio reception state, vector"
vector 463 Scenario.node[67].wlan[0].mac.dcf.recoveryProcedure contentionWindowChanged:vector ETV
attr interpolationmode sample-hold
attr title "contention window, vector"
vector 464 Scenario.node[68].wlan[0].radio radioMode:vector ETV
attr interpolationmode sample-hold
attr source radioModeChanged
attr title "Radio mode, vector"
vector 465 Scenario.node[68].wlan[0].radio radioChannel:vector ETV
attr interpolationmode sample-hold
attr source radioChannelChanged
[...]
388	7829536 28388 73264 1236854 8 59.84 1298 1546 1546 2006708 3102370568
389	7857924 28388 73268 1236856 8 59.84 1298 1546 1546 2006708 3102370568
390	7886312 42 91960 91960 9 9 3 0 2 2 4
391	7886354 14 91960 91960 9 9 1 0 0 0 0
392	7886368 14 91960 91960 9 9 1 1 1 1 1
393	7886382 15 91960 91960 9 9 1 31 31 31 961
394	7886397 42 91960 91960 9 9 3 0 2 2 4
395	7886439 14 91960 91960 9 9 1 0 0 0 0
396	7886453 14 91960 91960 9 9 1 1 1 1 1
397	7886467 15 91960 91960 9 9 1 31 31 31 961
398	7886482 42 91960 91960 9 9 3 0 2 2 4
399	7886524 14 91960 91960 9 9 1 0 0 0 0
400	7886538 14 91960 91960 9 9 1 1 1 1 1
401	7886552 15 91960 91960 9 9 1 31 31 31 961
402	7886567 187158 91960 855496 9 41.998 9431 0 2 14144 23574
403	8073725 14 91960 91960 9 9 1 0 0 0 0
404	8073739 187130 91960 855496 9 41.998 9429 0 1 4715 4715
405	8260869 15 91960 91960 9 9 1 31 31 31 961
406	8260884 42 91960 91960 9 9 3 0 2 2 4
407	8260926 14 91960 91960 9 9 1 0 0 0 0
408	8260940 14 91960 91960 9 9 1 1 1 1 1
409	8260954 15 91960 91960 9 9 1 31 31 31 961
410	8260969 42 91960 91960 9 9 3 0 2 2 4
411	8261011 14 91960 91960 9 9 1 0 0 0 0
412	8261025 14 91960 91960 9 9 1 1 1 1 1
413	8261039 15 91960 91960 9 9 1 31 31 31 961
414	8261054 13210 92031 1237601 9 59.88 637 0 636 202566 85955506
415	8274264 13210 92032 1237602 9 59.88 637 0 636 202566 85955506
416	8287474 13210 92033 1237603 9 59.88 637 0 636 202566 85955506
417	8300684 13210 92034 1237604 9 59.88 637 0 636 202566 85955506
418	8313894 13210 92035 1237605 9 59.88 637 0 636 202566 85955506
419	8327104 13210 92036 1237606 9 59.88 637 0 636 202566 85955506
420	8340314 13210 92037 1237607 9 59.88 637 0 636 202566 85955506
421	8353524 13210 92038 1237608 9 59.88 637 0 636 202566 85955506
422	8366734 13210 92039 1237609 9 59.88 637 0 636 202566 85955506
423	8379944 13210 92040 1237610 9 59.88 637 0 636 202566 85955506
424	8393154 13210 92041 1237611 9 59.88 637 0 636 202566 85955506
425	8406364 13210 92042 1237612 9 59.88 637 0 636 202566 85955506
426	8419574 27914 92098 1237666 9 59.88 1274 1546 1546 1969604 3045007784
427	8447488 27914 92102 1237668 9 59.88 1274 1546 1546 1969604 3045007784
428	8475402 27914 92106 1237670 9 59.88 1274 1546 1546 1969604 3045007784
429	8503316 27914 92110 1237672 9 59.88 1274 1546 1546 1969604 3045007784
430	8531230 27914 92114 1237674 9 59.88 1274 1546 1546 1969604 3045007784
431	8559144 27914 92118 1237676 9 59.88 1274 1546 1546 1969604 3045007784
432	8587058 48 112815 112815 10 10 3 0 2 2 4
433	8587106 16 112815 112815 10 10 1 0 0 0 0
434	8587122 16 112815 112815 10 10 1 1 1 1 1
435	8587138 17 112815 112815 10 10 1 31 31 31 961
436	8587155 48 112815 112815 10 10 3 0 2 2 4
437	8587203 16 112815 112815 10 10 1 0 0 0 0
438	8587219 16 112815 112815 10 10 1 1 1 1 1
439	8587235 17 112815 112815 10 10 1 31 31 31 961
440	8587252 48 112815 112815 10 10 3 0 2 2 4
441	8587300 16 112815 112815 10 10 1 0 0 0 0
442	8587316 16 112815 112815 10 10 1 1 1 1 1
443	8587332 17 112815 112815 10 10 1 31 31 31 961
444	8587349 48 112815 112815 10 10 3 0 2 2 4
445	8587397 16 112815 112815 10 10 1 0 0 0 0
446	8587413 16 112815 112815 10 10 1 1 1 1 1
447	8587429 17 112815 112815 10 10 1 31 31 31 961
448	8587446 48 112815 112815 10 10 3 0 2 2 4
449	8587494 16 112815 112815 10 10 1 0 0 0 0
450	8587510 16 112815 112815 10 10 1 1 1 1 1
451	8587526 17 112815 112815 10 10 1 31 31 31 961
452	8587543 133374 112815 1237942 10 59.896 6545 0 2 9815 16359
453	8720917 16 112815 112815 10 10 1 0 0 0 0
454	8720933 133342 112815 1237942 10 59.896 6543 0 1 3272 3272
455	8854275 17 112815 112815 10 10 1 31 31 31 961
456	8854292 156128 112815 1237944 10 59.896 7689 0 2 11531 19219
457	9010420 16 112815 112815 10 10 1 0 0 0 0
458	9010436 156096 112815 1237944 10 59.896 7687 0 1 3844 3844
459	9166532 17 112815 112815 10 10 1 31 31 31 961
460	9166549 35264 112815 1237946 10 59.896 1689 0 2 2531 4219
461	9201813 16 112815 112815 10 10 1 0 0 0 0
462	9201829 35232 112815 1237946 10 59.896 1687 0 1 844 844
463	9237061 17 112815 112815 10 10 1 31 31 31 961
468	9237078 12960 112884 1236767 10 59.84 624 0 623 194376 80795624
469	9250038 12960 112885 1236768 10 59.84 624 0 623 194376 80795624
470	9262998 12960 112886 1236769 10 59.84 624 0 623 194376 80795624
471	9275958 12960 112887 1236770 10 59.84 624 0 623 194376 80795624
472	9288918 12960 112888 1236771 10 59.84 624 0 623 194376 80795624
473	9301878 12960 112889 1236772 10 59.84 624 0 623 194376 80795624
474	9314838 12960 112890 1236773 10 59.84 624 0 623 194376 80795624
475	9327798 12960 112891 1236774 10 59.84 624 0 623 194376 80795624
476	9340758 12960 112892 1236775 10 59.84 624 0 623 194376 80795624
477	9353718 12960 112893 1236776 10 59.84 624 0 623 194376 80795624
478	9366678 12960 112894 1236777 10 59.84 624 0 623 194376 80795624
479	9379638 12960 112895 1236778 10 59.84 624 0 623 194376 80795624
480	9392598 12960 112896 1236779 10 59.84 624 0 623 194376 80795624
481	9405558 12960 112897 1236780 10 59.84 624 0 623 194376 80795624
482	9418518 12960 112898 1236781 10 59.84 624 0 623 194376 80795624
483	9431478 12960 112899 1236782 10 59.84 624 0 623 194376 80795624
486	9444438 27388 112957 1236858 10 59.84 1248 1546 1546 1929408 2982864768
487	9471826 27388 112961 1236860 10 59.84 1248 1546 1546 1929408 2982864768
488	9499214 27388 112965 1236862 10 59.84 1248 1546 1546 1929408 2982864768
489	9526602 27388 112969 1236864 10 59.84 1248 1546 1546 1929408 2982864768
490	9553990 27388 112973 1236866 10 59.84 1248 1546 1546 1929408 2982864768
491	9581378 27388 112977 1236868 10 59.84 1248 1546 1546 1929408 2982864768
492	9608766 27388 112981 1236870 10 59.84 1248 1546 1546 1929408 2982864768
493	9636154 27388 112985 1236872 10 59.84 1248 1546 1546 1929408 2982864768
495	9663542 48 136683 136683 11 11 3 0 2 2 4
496	9663590 16 136683 136683 11 11 1 0 0 0 0
497	9663606 16 136683 136683 11 11 1 1 1 1 1
498	9663622 17 136683 136683 11 11 1 31 31 31 961
499	9663639 12710 136766 1237613 11 59.88 612 0 611 186966 76219806
500	9676349 12710 136767 1237614 11 59.88 612 0 611 186966 76219806
501	9689059 26864 136835 1237678 11 59.88 1224 1546 1546 1892304 2925501984
8	9715923 248 1238299 1241232 59.916885314882 60.056885314882 8 2995 3002 23988 71928060
9	9716171 464 1238301 1241239 59.916885314882 60.056885314882 16 84 84 1344 112896
10	9716635 480 1238301 1241239 59.916885314882 60.056885314882 16 84 84 1344 112896
11	9717115 256 1238308 1241241 59.916885314882 60.056885314882 8 2995 3002 23988 71928060
32	9717371 876 1238131 1241184 59.905 60.052 44 1 2 66 110
34	9718247 876 1238131 1241184 59.905 60.052 44 0 1 22 22
36	9719123 876 1238133 1241186 59.905 60.052 44 1 2 66 110
38	9719999 876 1238133 1241186 59.905 60.052 44 0 1 22 22
40	9720875 42 1239198 1240848 59.96 60.04 2 737 738 1475 1087813
41	9720917 42 1239199 1240849 59.96 60.04 2 737 738 1475 1087813
42	9720959 42 1239200 1240850 59.96 60.04 2 737 738 1475 1087813
43	9721001 42 1239201 1240851 59.96 60.04 2 737 738 1475 1087813
46	9721043 42 1239202 1240852 59.96 60.04 2 737 738 1475 1087813
47	9721085 42 1239203 1240853 59.96 60.04 2 737 738 1475 1087813
48	9721127 42 1239204 1240854 59.96 60.04 2 737 738 1475 1087813
49	9721169 42 1239205 1240855 59.96 60.04 2 737 738 1475 1087813
50	9721211 42 1239206 1240856 59.96 60.04 2 737 738 1475 1087813
51	9721253 42 1239207 1240857 59.96 60.04 2 737 738 1475 1087813
52	9721295 42 1239208 1240858 59.96 60.04 2 737 738 1475 1087813
53	9721337 42 1239209 1240859 59.96 60.04 2 737 738 1475 1087813
54	9721379 88 1239278 1240917 59.96 60.04 4 1546 1546 6184 9560464
55	9721467 88 1239280 1240919 59.96 60.04 4 1546 1546 6184 9560464
57	9721555 88 1239282 1240921 59.96 60.04 4 1546 1546 6184 9560464
58	9721643 88 1239284 1240923 59.96 60.04 4 1546 1546 6184 9560464
59	9721731 88 1239286 1240925 59.96 60.04 4 1546 1546 6184 9560464
60	9721819 88 1239288 1240927 59.96 60.04 4 1546 1546 6184 9560464
65	9721907 876 1238103 1241156 59.904 60.051 44 1 2 66 110
67	9722783 876 1238103 1241156 59.904 60.051 44 0 1 22 22
93	9723659 39 1238384 1240008 59.92 60 2 724 725 1449 1049801
94	9723698 39 1238385 1240009 59.92 60 2 724 725 1449 1049801
95	9723737 39 1238386 1240010 59.92 60 2 724 725 1449 1049801
96	9723776 39 1238387 1240011 59.92 60 2 724 725 1449 1049801
97	9723815 39 1238388 1240012 59.92 60 2 724 725 1449 1049801
98	9723854 39 1238389 1240013 59.92 60 2 724 725 1449 1049801
101	9723893 41 1238390 1240014 59.92 60 2 724 725 1449 1049801
102	9723934 41 1238391 1240015 59.92 60 2 724 725 1449 1049801
103	9723975 41 1238392 1240016 59.92 60 2 724 725 1449 1049801
104	9724016 41 1238393 1240017 59.92 60 2 724 725 1449 1049801
105	9724057 41 1238394 1240018 59.92 60 2 724 725 1449 1049801
106	9724098 41 1238395 1240019 59.92 60 2 724 725 1449 1049801
109	9724139 86 1238457 1240085 59.92 60 4 1546 1546 6184 9560464
110	9724225 86 1238459 1240087 59.92 60 4 1546 1546 6184 9560464
111	9724311 86 1238461 1240089 59.92 60 4 1546 1546 6184 9560464
113	9724397 86 1238463 1240091 59.92 60 4 1546 1546 6184 9560464
114	9724483 86 1238465 1240093 59.92 60 4 1546 1546 6184 9560464
115	9724569 86 1238467 1240095 59.92 60 4 1546 1546 6184 9560464
117	9724655 960 1238077 1241260 59.903 60.057 46 1 2 69 115
119	9725615 960 1238077 1241260 59.903 60.057 46 0 1 23 23
145	9726575 44 1239210 1240860 59.96 60.04 2 712 713 1425 1015313
146	9726619 44 1239211 1240861 59.96 60.04 2 712 713 1425 1015313
147	9726663 44 1239212 1240862 59.96 60.04 2 712 713 1425 1015313
148	9726707 44 1239213 1240863 59.96 60.04 2 712 713 1425 1015313
149	9726751 44 1239214 1240864 59.96 60.04 2 712 713 1425 1015313
150	9726795 44 1239215 1240865 59.96 60.04 2 712 713 1425 1015313
151	9726839 44 1239216 1240866 59.96 60.04 2 712 713 1425 1015313
152	9726883 44 1239217 1240867 59.96 60.04 2 712 713 1425 1015313
155	9726927 44 1239218 1240868 59.96 60.04 2 712 713 1425 1015313
156	9726971 44 1239219 1240869 59.96 60.04 2 712 713 1425 1015313
157	9727015 44 1239220 1240870 59.96 60.04 2 712 713 1425 1015313
158	9727059 44 1239221 1240871 59.96 60.04 2 712 713 1425 1015313
159	9727103 92 1239290 1240929 59.96 60.04 4 1546 1546 6184 9560464
160	9727195 92 1239292 1240931 59.96 60.04 4 1546 1546 6184 9560464
161	9727287 92 1239294 1240933 59.96 60.04 4 1546 1546 6184 9560464
162	9727379 92 1239296 1240935 59.96 60.04 4 1546 1546 6184 9560464
164	9727471 92 1239298 1240937 59.96 60.04 4 1546 1546 6184 9560464
165	9727563 92 1239300 1240939 59.96 60.04 4 1546 1546 6184 9560464
178	9727655 956 1238055 1241227 59.902 60.056 46 1 2 69 115
180	9728611 956 1238055 1241227 59.902 60.056 46 0 1 23 23
198	9729567 41 1238396 1240020 59.92 60 2 699 700 1399 978601
199	9729608 41 1238397 1240021 59.92 60 2 699 700 1399 978601
200	9729649 41 1238398 1240022 59.92 60 2 699 700 1399 978601
201	9729690 41 1238399 1240023 59.92 60 2 699 700 1399 978601
202	9729731 41 1238400 1240024 59.92 60 2 699 700 1399 978601
203	9729772 41 1238401 1240025 59.92 60 2 699 700 1399 978601
204	9729813 41 1238402 1240026 59.92 60 2 699 700 1399 978601
205	9729854 41 1238403 1240027 59.92 60 2 699 700 1399 978601
206	9729895 41 1238404 1240028 59.92 60 2 699 700 1399 978601
207	9729936 41 1238405 1240029 59.92 60 2 699 700 1399 978601
208	9729977 41 1238406 1240030 59.92 60 2 699 700 1399 978601
209	9730018 41 1238407 1240031 59.92 60 2 699 700 1399 978601
214	9730059 86 1238469 1240097 59.92 60 4 1546 1546 6184 9560464
215	9730145 86 1238471 1240099 59.92 60 4 1546 1546 6184 9560464
216	9730231 86 1238473 1240101 59.92 60 4 1546 1546 6184 9560464
217	9730317 86 1238475 1240103 59.92 60 4 1546 1546 6184 9560464
218	9730403 86 1238477 1240105 59.92 60 4 1546 1546 6184 9560464
219	9730489 86 1238479 1240107 59.92 60 4 1546 1546 6184 9560464
238	9730575 962 1238043 1241215 59.901 60.055 46 1 2 69 115
240	9731537 962 1238043 1241215 59.901 60.055 46 0 1 23 23
242	9732499 962 1238045 1241217 59.901 60.055 46 1 2 69 115
244	9733461 962 1238045 1241217 59.901 60.055 46 0 1 23 23
248	9734423 44 1239222 1240872 59.96 60.04 2 687 688 1375 945313
249	9734467 44 1239223 1240873 59.96 60.04 2 687 688 1375 945313
252	9734511 44 1239224 1240874 59.96 60.04 2 687 688 1375 945313
253	9734555 44 1239225 1240875 59.96 60.04 2 687 688 1375 945313
254	9734599 44 1239226 1240876 59.96 60.04 2 687 688 1375 945313
255	9734643 44 1239227 1240877 59.96 60.04 2 687 688 1375 945313
256	9734687 44 1239228 1240878 59.96 60.04 2 687 688 1375 945313
257	9734731 44 1239229 1240879 59.96 60.04 2 687 688 1375 945313
259	9734775 92 1239302 1240941 59.96 60.04 4 1546 1546 6184 9560464
261	9734867 92 1239304 1240943 59.96 60.04 4 1546 1546 6184 9560464
262	9734959 92 1239306 1240945 59.96 60.04 4 1546 1546 6184 9560464
263	9735051 92 1239308 1240947 59.96 60.04 4 1546 1546 6184 9560464
264	9735143 958 1238027 1241199 59.9 60.054 46 1 2 69 115
266	9736101 958 1238027 1241199 59.9 60.054 46 0 1 23 23
272	9737059 958 1238031 1241203 59.9 60.054 46 1 2 69 115
274	9738017 958 1238031 1241203 59.9 60.054 46 0 1 23 23
276	9738975 958 1238033 1241205 59.9 60.054 46 1 2 69 115
278	9739933 958 1238033 1241205 59.9 60.054 46 0 1 23 23
288	9740891 41 1238408 1240032 59.92 60 2 674 675 1349 909901
289	9740932 41 1238409 1240033 59.92 60 2 674 675 1349 909901
290	9740973 41 1238410 1240034 59.92 60 2 674 675 1349 909901
291	9741014 41 1238411 1240035 59.92 60 2 674 675 1349 909901
292	9741055 41 1238412 1240036 59.92 60 2 674 675 1349 909901
293	9741096 41 1238413 1240037 59.92 60 2 674 675 1349 909901
294	9741137 41 1238414 1240038 59.92 60 2 674 675 1349 909901
295	9741178 41 1238415 1240039 59.92 60 2 674 675 1349 909901
296	9741219 41 1238416 1240040 59.92 60 2 674 675 1349 909901
297	9741260 41 1238417 1240041 59.92 60 2 674 675 1349 909901
298	9741301 41 1238418 1240042 59.92 60 2 674 675 1349 909901
299	9741342 41 1238419 1240043 59.92 60 2 674 675 1349 909901
300	9741383 86 1238481 1240109 59.92 60 4 1546 1546 6184 9560464
301	9741469 86 1238483 1240111 59.92 60 4 1546 1546 6184 9560464
302	9741555 86 1238485 1240113 59.92 60 4 1546 1546 6184 9560464
303	9741641 86 1238487 1240115 59.92 60 4 1546 1546 6184 9560464
304	9741727 86 1238489 1240117 59.92 60 4 1546 1546 6184 9560464
305	9741813 86 1238491 1240119 59.92 60 4 1546 1546 6184 9560464
322	9741899 920 1238139 1241192 59.906 60.053 44 1 2 66 110
324	9742819 920 1238139 1241192 59.906 60.053 44 0 1 22 22
330	9743739 336 1240228 1241196 60.004 60.053 16 1 2 24 40
332	9744075 336 1240228 1241196 60.004 60.053 16 0 1 8 8
334	9744411 44 1239230 1240880 59.96 60.04 2 662 663 1325 877813
335	9744455 44 1239231 1240881 59.96 60.04 2 662 663 1325 877813
340	9744499 44 1239232 1240882 59.96 60.04 2 662 663 1325 877813
341	9744543 44 1239233 1240883 59.96 60.04 2 662 663 1325 877813
342	9744587 44 1239234 1240884 59.96 60.04 2 662 663 1325 877813
343	9744631 44 1239235 1240885 59.96 60.04 2 662 663 1325 877813
344	9744675 44 1239236 1240886 59.96 60.04 2 662 663 1325 877813
345	9744719 44 1239237 1240887 59.96 60.04 2 662 663 1325 877813
346	9744763 44 1239238 1240888 59.96 60.04 2 662 663 1325 877813
347	9744807 44 1239239 1240889 59.96 60.04 2 662 663 1325 877813
348	9744851 92 1239310 1240949 59.96 60.04 4 1546 1546 6184 9560464
351	9744943 92 1239312 1240951 59.96 60.04 4 1546 1546 6184 9560464
352	9745035 92 1239314 1240953 59.96 60.04 4 1546 1546 6184 9560464
353	9745127 92 1239316 1240955 59.96 60.04 4 1546 1546 6184 9560464
354	9745219 92 1239318 1240957 59.96 60.04 4 1546 1546 6184 9560464
355	9745311 920 1238113 1241166 59.905 60.052 44 1 2 66 110
357	9746231 920 1238113 1241166 59.905 60.052 44 0 1 22 22
359	9747151 920 1238115 1241168 59.905 60.052 44 1 2 66 110
361	9748071 920 1238115 1241168 59.905 60.052 44 0 1 22 22
375	9748991 41 1238420 1240044 59.92 60 2 649 650 1299 843701
376	9749032 41 1238421 1240045 59.92 60 2 649 650 1299 843701
377	9749073 41 1238422 1240046 59.92 60 2 649 650 1299 843701
378	9749114 41 1238423 1240047 59.92 60 2 649 650 1299 843701
379	9749155 41 1238424 1240048 59.92 60 2 649 650 1299 843701
380	9749196 41 1238425 1240049 59.92 60 2 649 650 1299 843701
381	9749237 41 1238426 1240050 59.92 60 2 649 650 1299 843701
382	9749278 41 1238427 1240051 59.92 60 2 649 650 1299 843701
383	9749319 41 1238428 1240052 59.92 60 2 649 650 1299 843701
384	9749360 41 1238429 1240053 59.92 60 2 649 650 1299 843701
385	9749401 86 1238493 1240121 59.92 60 4 1546 1546 6184 9560464
386	9749487 86 1238495 1240123 59.92 60 4 1546 1546 6184 9560464
387	9749573 86 1238497 1240125 59.92 60 4 1546 1546 6184 9560464
388	9749659 86 1238499 1240127 59.92 60 4 1546 1546 6184 9560464
389	9749745 86 1238501 1240129 59.92 60 4 1546 1546 6184 9560464
394	9749831 376 1240176 1241274 60.002 60.058 18 1 2 27 45
396	9750207 376 1240176 1241274 60.002 60.058 18 0 1 9 9
414	9750583 44 1239240 1240890 59.96 60.04 2 637 638 1275 812813
415	9750627 44 1239241 1240891 59.96 60.04 2 637 638 1275 812813
416	9750671 44 1239242 1240892 59.96 60.04 2 637 638 1275 812813
417	9750715 44 1239243 1240893 59.96 60.04 2 637 638 1275 812813
418	9750759 44 1239244 1240894 59.96 60.04 2 637 638 1275 812813
419	9750803 44 1239245 1240895 59.96 60.04 2 637 638 1275 812813
420	9750847 44 1239246 1240896 59.96 60.04 2 637 638 1275 812813
421	9750891 44 1239247 1240897 59.96 60.04 2 637 638 1275 812813
422	9750935 44 1239248 1240898 59.96 60.04 2 637 638 1275 812813
423	9750979 44 1239249 1240899 59.96 60.04 2 637 638 1275 812813
424	9751023 44 1239250 1240900 59.96 60.04 2 637 638 1275 812813
425	9751067 44 1239251 1240901 59.96 60.04 2 637 638 1275 812813
426	9751111 92 1239320 1240959 59.96 60.04 4 1546 1546 6184 9560464
427	9751203 92 1239322 1240961 59.96 60.04 4 1546 1546 6184 9560464
428	9751295 92 1239324 1240963 59.96 60.04 4 1546 1546 6184 9560464
429	9751387 92 1239326 1240965 59.96 60.04 4 1546 1546 6184 9560464
430	9751479 92 1239328 1240967 59.96 60.04 4 1546 1546 6184 9560464
431	9751571 92 1239330 1240969 59.96 60.04 4 1546 1546 6184 9560464
452	9751663 960 1238071 1241254 59.903 60.057 46 1 2 69 115
454	9752623 960 1238071 1241254 59.903 60.057 46 0 1 23 23
456	9753583 960 1238073 1241256 59.903 60.057 46 1 2 69 115
458	9754543 960 1238073 1241256 59.903 60.057 46 0 1 23 23
460	9755503 960 1238075 1241258 59.903 60.057 46 1 2 69 115
462	9756463 960 1238075 1241258 59.903 60.057 46 0 1 23 23
468	9757423 41 1238430 1240054 59.92 60 2 624 625 1249 780001
469	9757464 41 1238431 1240055 59.92 60 2 624 625 1249 780001
470	9757505 41 1238432 1240056 59.92 60 2 624 625 1249 780001
471	9757546 41 1238433 1240057 59.92 60 2 624 625 1249 780001
472	9757587 41 1238434 1240058 59.92 60 2 624 625 1249 780001
473	9757628 41 1238435 1240059 59.92 60 2 624 625 1249 780001
474	9757669 41 1238436 1240060 59.92 60 2 624 625 1249 780001
475	9757710 41 1238437 1240061 59.92 60 2 624 625 1249 780001
476	9757751 41 1238438 1240062 59.92 60 2 624 625 1249 780001
477	9757792 41 1238439 1240063 59.92 60 2 624 625 1249 780001
478	9757833 41 1238440 1240064 59.92 60 2 624 625 1249 780001
479	9757874 41 1238441 1240065 59.92 60 2 624 625 1249 780001
480	9757915 41 1238442 1240066 59.92 60 2 624 625 1249 780001
481	9757956 41 1238443 1240067 59.92 60 2 624 625 1249 780001
482	9757997 41 1238444 1240068 59.92 60 2 624 625 1249 780001
483	9758038 41 1238445 1240069 59.92 60 2 624 625 1249 780001
486	9758079 86 1238503 1240131 59.92 60 4 1546 1546 6184 9560464
487	9758165 86 1238505 1240133 59.92 60 4 1546 1546 6184 9560464
488	9758251 86 1238507 1240135 59.92 60 4 1546 1546 6184 9560464
489	9758337 86 1238509 1240137 59.92 60 4 1546 1546 6184 9560464
490	9758423 86 1238511 1240139 59.92 60 4 1546 1546 6184 9560464
491	9758509 86 1238513 1240141 59.92 60 4 1546 1546 6184 9560464
492	9758595 86 1238515 1240143 59.92 60 4 1546 1546 6184 9560464
493	9758681 86 1238517 1240145 59.92 60 4 1546 1546 6184 9560464
499	9758767 44 1239252 1240902 59.96 60.04 2 612 613 1225 750313
500	9758811 44 1239253 1240903 59.96 60.04 2 612 613 1225 750313
501	9758855 92 1239332 1240971 59.96 60.04 4 1546 1546 6184 9560464

