file 26746721 1749132692                                        
version 2
run General-0-20250605-14:10:18-47404
attr configname General
attr datetime 20250605-14:10:18
attr experiment General
attr inifile omnetpp.ini
attr iterationvars ""
attr iterationvarsf ""
attr measurement ""
attr network Scenario
attr processid 47404
attr repetition 0
attr replication #0
attr resultdir results
attr runnumber 0
attr seedset 0
param *.RSU.numApps 5
param *.RSU.app[0].typename "\"NJSPingApp\""
param *.RSU.app[0].destAddr "\"*\""
param *.RSU.app[0].sendInterval 20ms
param *.RSU.app[1].typename "\"NJSLoggingApp\""
param *.RSU.app[1].cleanAfterEachCalculation false
param *.RSU.app[2].typename "\"NJSLegacyLoggingApp\""
param *.RSU.app[2].cleanAfterEachCalculation false
param *.RSU.app[3].typename "\"SNRLoggingApp\""
param *.RSU.app[3].cleanAfterEachCalculation false
param *.RSU.app[4].typename "\"MLLoggingApp\""
param *.RSU.app[4].cleanAfterEachCalculation false
param *.jammer.mobility.typename "\"StationaryMobility\""
param *.jammer.numApps 1
param *.jammer.app[0].typename "\"NJSJammerApp\""
param *.jammer.app[0].destAddr "\"\""
param *.jammer.app[0].sendInterval 5ms
param *.jammer.app[0].packetSize 8B
param *.jammer.app[0].jammingSourceAddress "\"jammer\""
param *.jammer.app[0].isProactive true
param *.jammer.app[0].jammingRadius 215m
param *.jammer.wlan[*].radio.displayCommunicationRange true
param *.jammer.wlan[*].radio.transmitter.power 1.6mW
param *.node[*].numApps 2
param *.node[*].app[0].typename "\"NJSPingApp\""
param *.node[*].app[0].destAddr "\"RSU\""
param *.node[*].app[0].sendInterval 80ms
param *.node[*].app[0].packetSize 1518B
param *.node[*].app[1].typename "\"SNRPingApp\""
param *.node[*].app[1].destAddr "\"RSU\""
param *.node[*].app[1].sendInterval 80ms
param *.node[*].app[1].packetSize 1518B
param *.RSU.wlan[*].radio.transmitter.power 15mW
param *.node[*].wlan[*].radio.transmitter.power 15mW
param **.wlan[*].radio.transmitter.bitrate 2Mbps
param **.wlan[*].radio.transmitter.headerLength 272B
param **.wlan[*].radio.transmitter.centerFrequency 2.4GHz
param **.wlan[*].radio.receiver.sensitivity -85dBm
param **.wlan[*].radio.receiver.snirThreshold 4dB
param *.node[*].mobility.typename "\"VeinsInetMobility\""
param **.constraintAreaMinX 0m
param **.constraintAreaMinY 0m
param **.constraintAreaMinZ 0m
param **.constraintAreaMaxX 5500m
param **.constraintAreaMaxY 5500m
param **.constraintAreaMaxZ 50m
param *.manager.updateInterval 1s
param *.manager.host "\"localhost\""
param *.manager.port 9999
param *.manager.numVehicles 1
param *.manager.autoShutdown true
param *.manager.launchConfig "xmldoc(\"durham.launchd.xml\")"
param *.obstacles.obstacles "xmldoc(\"config.xml\", \"//AnalogueModel[@type='SimpleObstacleShadowing']/obstacles\")"
param *.manager.moduleType "\"inetwirelesstutorial.veins_inet.VeinsInetCar\""

vector 0 Scenario.RSU.wlan[0].radio radioMode:vector ETV
attr interpolationmode sample-hold
attr source radioModeChanged
attr title "Radio mode, vector"
vector 1 Scenario.RSU.wlan[0].radio radioChannel:vector ETV
attr interpolationmode sample-hold
attr source radioChannelChanged
attr title "Radio channel, vector"
vector 2 Scenario.jammer.wlan[0].radio radioMode:vector ETV
attr interpolationmode sample-hold
attr source radioModeChanged
attr title "Radio mode, vector"
vector 3 Scenario.jammer.wlan[0].radio radioChannel:vector ETV
attr interpolationmode sample-hold
attr source radioChannelChanged
attr title "Radio channel, vector"
vector 4 Scenario.RSU.wlan[0].radio receptionState:vector ETV
attr interpolationmode sample-hold
attr source receptionStateChanged
attr title "Radio reception state, vector"
vector 5 Scenario.jammer.wlan[0].radio receptionState:vector ETV
attr interpolationmode sample-hold
attr source receptionStateChanged
attr title "Radio reception state, vector"
vector 6 Scenario.RSU.wlan[0].mac.dcf.recoveryProcedure contentionWindowChanged:vector ETV
attr interpolationmode sample-hold
attr title "contention window, vector"
vector 7 Scenario.jammer.wlan[0].mac.dcf.recoveryProcedure contentionWindowChanged:vector ETV
attr interpolationmode sample-hold
attr title "contention window, vector"
vector 8 Scenario.RSU.app[0] pingTxSeq:vector ETV
attr interpolationmode none
attr title "ping tx seq, vector"
vector 9 Scenario.RSU.lo[0].lo rcvdPkFromHl:vector(packetBytes) ETV
attr interpolationmode none
attr source packetReceivedFromUpper
attr title "packets received from higher layer, vector(packetBytes)"
vector 10 Scenario.RSU.lo[0].lo passedUpPk:vector(packetBytes) ETV
attr interpolationmode none
attr source packetSentToUpper
attr title "packets passed to higher layer, vector(packetBytes)"
vector 11 Scenario.RSU.app[0] pingRxSeq:vector ETV
attr interpolationmode none
attr title "ping rx seq, vector"
vector 12 Scenario.node[0].wlan[0].radio radioMode:vector ETV
attr interpolationmode sample-hold
attr source radioModeChanged
attr title "Radio mode, vector"
vector 13 Scenario.node[0].wlan[0].radio radioChannel:vector ETV
attr interpolationmode sample-hold
attr source radioChannelChanged
attr title "Radio channel, vector"
vector 14 Scenario.node[0].wlan[0].radio receptionState:vector ETV
attr interpolationmode sample-hold
attr source receptionStateChanged
attr title "Radio reception state, vector"
vector 15 Scenario.node[0].wlan[0].mac.dcf.recoveryProcedure contentionWindowChanged:vector ETV
attr interpolationmode sample-hold
attr title "contention window, vector"
vector 16 Scenario.node[1].wlan[0].radio radioMode:vector ETV
attr interpolationmode sample-hold
attr source radioModeChanged
attr title "Radio mode, vector"
vector 17 Scenario.node[1].wlan[0].radio radioChannel:vector ETV
attr interpolationmode sample-hold
attr source radioChannelChanged
attr title "Radio channel, vector"
vector 18 Scenario.node[1].wlan[0].radio receptionState:vector ETV
attr interpolationmode sample-hold
attr source receptionStateChanged
attr title "Radio reception state, vector"
vector 19 Scenario.node[1].wlan[0].mac.dcf.recoveryProcedure contentionWindowChanged:vector ETV
attr interpolationmode sample-hold
attr title "contention window, vector"
vector 20 Scenario.node[2].wlan[0].radio radioMode:vector ETV
attr interpolationmode sample-hold
attr source radioModeChanged
attr title "Radio mode, vector"
vector 21 Scenario.node[2].wlan[0].radio radioChannel:vector ETV
attr interpolationmode sample-hold
attr source radioChannelChanged
attr title "Radio channel, vector"
vector 22 Scenario.node[2].wlan[0].radio receptionState:vector ETV
attr interpolationmode sample-hold
attr source receptionStateChanged
attr title "Radio reception state, vector"
vector 23 Scenario.node[2].wlan[0].mac.dcf.recoveryProcedure contentionWindowChanged:vector ETV
attr interpolationmode sample-hold
attr title "contention window, vector"
vector 24 Scenario.node[3].wlan[0].radio radioMode:vector ETV
attr interpolationmode sample-hold
attr source radioModeChanged
attr title "Radio mode, vector"
vector 25 Scenario.node[3].wlan[0].radio radioChannel:vector ETV
attr interpolationmode sample-hold
attr source radioChannelChanged
attr title "Radio channel, vector"
vector 26 Scenario.node[3].wlan[0].radio receptionState:vector ETV
attr interpolationmode sample-hold
attr source receptionStateChanged
attr title "Radio reception state, vector"
vector 27 Scenario.node[3].wlan[0].mac.dcf.recoveryProcedure contentionWindowChanged:vector ETV
attr interpolationmode sample-hold
attr title "contention window, vector"
vector 28 Scenario.node[4].wlan[0].radio radioMode:vector ETV
attr interpolationmode sample-hold
attr source radioModeChanged
attr title "Radio mode, vector"
vector 29 Scenario.node[4].wlan[0].radio radioChannel:vector ETV
attr interpolationmode sample-hold
attr source radioChannelChanged
attr title "Radio channel, vector"
vector 30 Scenario.node[4].wlan[0].radio receptionState:vector ETV
attr interpolationmode sample-hold
attr source receptionStateChanged
attr title "Radio reception state, vector"
vector 31 Scenario.node[4].wlan[0].mac.dcf.recoveryProcedure contentionWindowChanged:vector ETV
attr interpolationmode sample-hold
attr title "contention window, vector"
vector 32 Scenario.node[5].wlan[0].radio radioMode:vector ETV
attr interpolationmode sample-hold
attr source radioModeChanged
attr title "Radio mode, vector"
vector 33 Scenario.node[5].wlan[0].radio radioChannel:vector ETV
attr interpolationmode sample-hold
attr source radioChannelChanged
attr title "Radio channel, vector"
vector 34 Scenario.node[5].wlan[0].radio receptionState:vector ETV
attr interpolationmode sample-hold
attr source receptionStateChanged
attr title "Radio reception state, vector"
vector 35 Scenario.node[5].wlan[0].mac.dcf.recoveryProcedure contentionWindowChanged:vector ETV
attr interpolationmode sample-hold
attr title "contention window, vector"
vector 36 Scenario.node[6].wlan[0].radio radioMode:vector ETV
attr interpolationmode sample-hold
attr source radioModeChanged
attr title "Radio mode, vector"
vector 37 Scenario.node[6].wlan[0].radio radioChannel:vector ETV
attr interpolationmode sample-hold
attr source radioChannelChanged
attr title "Radio channel, vector"
vector 38 Scenario.node[6].wlan[0].radio receptionState:vector ETV
attr interpolationmode sample-hold
attr source receptionStateChanged
attr title "Radio reception state, vector"
vector 39 Scenario.node[6].wlan[0].mac.dcf.recoveryProcedure contentionWindowChanged:vector ETV
attr interpolationmode sample-hold
attr title "contention window, vector"
vector 40 Scenario.node[0].app[0] pingTxSeq:vector ETV
attr interpolationmode none
attr title "ping tx seq, vector"
vector 41 Scenario.node[0].app[1] pingTxSeq:vector ETV
attr interpolationmode none
attr title "ping tx seq, vector"
vector 42 Scenario.node[1].app[0] pingTxSeq:vector ETV
attr interpolationmode none
attr title "ping tx seq, vector"
vector 43 Scenario.node[1].app[1] pingTxSeq:vector ETV
attr interpolationmode none
attr title "ping tx seq, vector"
vector 44 Scenario.node[2].app[0] pingTxSeq:vector ETV
attr interpolationmode none
attr title "ping tx seq, vector"
vector 45 Scenario.node[2].app[1] pingTxSeq:vector ETV
attr interpolationmode none
attr title "ping tx seq, vector"
vector 46 Scenario.node[3].app[0] pingTxSeq:vector ETV
attr interpolationmode none
attr title "ping tx seq, vector"
vector 47 Scenario.node[3].app[1] pingTxSeq:vector ETV
attr interpolationmode none
attr title "ping tx seq, vector"
vector 48 Scenario.node[4].app[0] pingTxSeq:vector ETV
attr interpolationmode none
attr title "ping tx seq, vector"
vector 49 Scenario.node[4].app[1] pingTxSeq:vector ETV
attr interpolationmode none
attr title "ping tx seq, vector"
vector 50 Scenario.node[5].app[0] pingTxSeq:vector ETV
attr interpolationmode none
attr title "ping tx seq, vector"
vector 51 Scenario.node[5].app[1] pingTxSeq:vector ETV
attr interpolationmode none
attr title "ping tx seq, vector"
vector 52 Scenario.node[6].app[0] pingTxSeq:vector ETV
attr interpolationmode none
attr title "ping tx seq, vector"
vector 53 Scenario.node[6].app[1] pingTxSeq:vector ETV
attr interpolationmode none
attr title "ping tx seq, vector"
vector 54 Scenario.node[0].ipv4.ip packetDropNoRouteFound:vector(packetBytes) ETV
attr interpolationmode none
attr source packetDropReasonIsNoRouteFound(packetDropped)
attr title "packet drop: no route found, vector(packetBytes)"
vector 55 Scenario.node[1].ipv4.ip packetDropNoRouteFound:vector(packetBytes) ETV
attr interpolationmode none
attr source packetDropReasonIsNoRouteFound(packetDropped)
attr title "packet drop: no route found, vector(packetBytes)"
vector 56 Scenario.node[2].ipv4.ip packetDropNoRouteFound:vector(packetBytes) ETV
attr interpolationmode none
attr source packetDropReasonIsNoRouteFound(packetDropped)
attr title "packet drop: no route found, vector(packetBytes)"
vector 57 Scenario.node[3].ipv4.ip packetDropNoRouteFound:vector(packetBytes) ETV
attr interpolationmode none
attr source packetDropReasonIsNoRouteFound(packetDropped)
attr title "packet drop: no route found, vector(packetBytes)"
vector 58 Scenario.node[4].ipv4.ip packetDropNoRouteFound:vector(packetBytes) ETV
attr interpolationmode none
attr source packetDropReasonIsNoRouteFound(packetDropped)
attr title "packet drop: no route found, vector(packetBytes)"
vector 59 Scenario.node[5].ipv4.ip packetDropNoRouteFound:vector(packetBytes) ETV
attr interpolationmode none
attr source packetDropReasonIsNoRouteFound(packetDropped)
attr title "packet drop: no route found, vector(packetBytes)"
vector 60 Scenario.node[6].ipv4.ip packetDropNoRouteFound:vector(packetBytes) ETV
attr interpolationmode none
attr source packetDropReasonIsNoRouteFound(packetDropped)
attr title "packet drop: no route found, vector(packetBytes)"
vector 61 Scenario.node[7].wlan[0].radio radioMode:vector ETV
attr interpolationmode sample-hold
attr source radioModeChanged
attr title "Radio mode, vector"
vector 62 Scenario.node[7].wlan[0].radio radioChannel:vector ETV
attr interpolationmode sample-hold
attr source radioChannelChanged
attr title "Radio channel, vector"
vector 63 Scenario.node[7].wlan[0].radio receptionState:vector ETV
attr interpolationmode sample-hold
attr source receptionStateChanged
attr title "Radio reception state, vector"
vector 64 Scenario.node[7].wlan[0].mac.dcf.recoveryProcedure contentionWindowChanged:vector ETV
attr interpolationmode sample-hold
attr title "contention window, vector"
vector 65 Scenario.node[8].wlan[0].radio radioMode:vector ETV
attr interpolationmode sample-hold
attr source radioModeChanged
attr title "Radio mode, vector"
vector 66 Scenario.node[8].wlan[0].radio radioChannel:vector ETV
attr interpolationmode sample-hold
attr source radioChannelChanged
attr title "Radio channel, vector"
vector 67 Scenario.node[8].wlan[0].radio receptionState:vector ETV
attr interpolationmode sample-hold
attr source receptionStateChanged
attr title "Radio reception state, vector"
vector 68 Scenario.node[8].wlan[0].mac.dcf.recoveryProcedure contentionWindowChanged:vector ETV
attr interpolationmode sample-hold
attr title "contention window, vector"
vector 69 Scenario.node[9].wlan[0].radio radioMode:vector ETV
attr interpolationmode sample-hold
attr source radioModeChanged
attr title "Radio mode, vector"
vector 70 Scenario.node[9].wlan[0].radio radioChannel:vector ETV
attr interpolationmode sample-hold
attr source radioChannelChanged
attr title "Radio channel, vector"
vector 71 Scenario.node[9].wlan[0].radio receptionState:vector ETV
attr interpolationmode sample-hold
attr source receptionStateChanged
attr title "Radio reception state, vector"
vector 72 Scenario.node[9].wlan[0].mac.dcf.recoveryProcedure contentionWindowChanged:vector ETV
attr interpolationmode sample-hold
attr title "contention window, vector"
vector 73 Scenario.node[10].wlan[0].radio radioMode:vector ETV
attr interpolationmode sample-hold
attr source radioModeChanged
attr title "Radio mode, vector"
vector 74 Scenario.node[10].wlan[0].radio radioChannel:vector ETV
attr interpolationmode sample-hold
attr source radioChannelChanged
attr title "Radio channel, vector"
vector 75 Scenario.node[10].wlan[0].radio receptionState:vector ETV
attr interpolationmode sample-hold
attr source receptionStateChanged
attr title "Radio reception state, vector"
vector 76 Scenario.node[10].wlan[0].mac.dcf.recoveryProcedure contentionWindowChanged:vector ETV
attr interpolationmode sample-hold
attr title "contention window, vector"
vector 77 Scenario.node[11].wlan[0].radio radioMode:vector ETV
attr interpolationmode sample-hold
attr source radioModeChanged
attr title "Radio mode, vector"
vector 78 Scenario.node[11].wlan[0].radio radioChannel:vector ETV
attr interpolationmode sample-hold
attr source radioChannelChanged
attr title "Radio channel, vector"
vector 79 Scenario.node[11].wlan[0].radio receptionState:vector ETV
attr interpolationmode sample-hold
attr source receptionStateChanged
attr title "Radio reception state, vector"
vector 80 Scenario.node[11].wlan[0].mac.dcf.recoveryProcedure contentionWindowChanged:vector ETV
attr interpolationmode sample-hold
attr title "contention window, vector"
vector 81 Scenario.node[12].wlan[0].radio radioMode:vector ETV
attr interpolationmode sample-hold
attr source radioModeChanged
attr title "Radio mode, vector"
vector 82 Scenario.node[12].wlan[0].radio radioChannel:vector ETV
attr interpolationmode sample-hold
attr source radioChannelChanged
attr title "Radio channel, vector"
vector 83 Scenario.node[12].wlan[0].radio receptionState:vector ETV
attr interpolationmode sample-hold
attr source receptionStateChanged
attr title "Radio reception state, vector"
vector 84 Scenario.node[12].wlan[0].mac.dcf.recoveryProcedure contentionWindowChanged:vector ETV
attr interpolationmode sample-hold
attr title "contention window, vector"
vector 85 Scenario.node[13].wlan[0].radio radioMode:vector ETV
attr interpolationmode sample-hold
attr source radioModeChanged
attr title "Radio mode, vector"
vector 86 Scenario.node[13].wlan[0].radio radioChannel:vector ETV
attr interpolationmode sample-hold
attr source radioChannelChanged
attr title "Radio channel, vector"
vector 87 Scenario.node[13].wlan[0].radio receptionState:vector ETV
attr interpolationmode sample-hold
attr source receptionStateChanged
attr title "Radio reception state, vector"
vector 88 Scenario.node[13].wlan[0].mac.dcf.recoveryProcedure contentionWindowChanged:vector ETV
attr interpolationmode sample-hold
attr title "contention window, vector"
vector 89 Scenario.node[14].wlan[0].radio radioMode:vector ETV
attr interpolationmode sample-hold
attr source radioModeChanged
attr title "Radio mode, vector"
vector 90 Scenario.node[14].wlan[0].radio radioChannel:vector ETV
attr interpolationmode sample-hold
attr source radioChannelChanged
attr title "Radio channel, vector"
vector 91 Scenario.node[14].wlan[0].radio receptionState:vector ETV
attr interpolationmode sample-hold
attr source receptionStateChanged
attr title "Radio reception state, vector"
vector 92 Scenario.node[14].wlan[0].mac.dcf.recoveryProcedure contentionWindowChanged:vector ETV
attr interpolationmode sample-hold
attr title "contention window, vector"
vector 93 Scenario.node[7].app[0] pingTxSeq:vector ETV
attr interpolationmode none
attr title "ping tx seq, vector"
vector 94 Scenario.node[7].app[1] pingTxSeq:vector ETV
attr interpolationmode none
attr title "ping tx seq, vector"
vector 95 Scenario.node[8].app[0] pingTxSeq:vector ETV
attr interpolationmode none
attr title "ping tx seq, vector"
vector 96 Scenario.node[8].app[1] pingTxSeq:vector ETV
attr interpolationmode none
attr title "ping tx seq, vector"
vector 97 Scenario.node[9].app[0] pingTxSeq:vector ETV
attr interpolationmode none
attr title "ping tx seq, vector"
vector 98 Scenario.node[9].app[1] pingTxSeq:vector ETV
attr interpolationmode none
attr title "ping tx seq, vector"
vector 99 Scenario.node[10].app[0] pingTxSeq:vector ETV
attr interpolationmode none
attr title "ping tx seq, vector"
vector 100 Scenario.node[10].app[1] pingTxSeq:vector ETV
attr interpolationmode none
attr title "ping tx seq, vector"
vector 101 Scenario.node[11].app[0] pingTxSeq:vector ETV
attr interpolationmode none
attr title "ping tx seq, vector"
vector 102 Scenario.node[11].app[1] pingTxSeq:vector ETV
attr interpolationmode none
attr title "ping tx seq, vector"
vector 103 Scenario.node[12].app[0] pingTxSeq:vector ETV
attr interpolationmode none
attr title "ping tx seq, vector"
vector 104 Scenario.node[12].app[1] pingTxSeq:vector ETV
attr interpolationmode none
attr title "ping tx seq, vector"
vector 105 Scenario.node[13].app[0] pingTxSeq:vector ETV
attr interpolationmode none
attr title "ping tx seq, vector"
vector 106 Scenario.node[13].app[1] pingTxSeq:vector ETV
attr interpolationmode none
attr title "ping tx seq, vector"
vector 107 Scenario.node[14].app[0] pingTxSeq:vector ETV
attr interpolationmode none
attr title "ping tx seq, vector"
vector 108 Scenario.node[14].app[1] pingTxSeq:vector ETV
attr interpolationmode none
attr title "ping tx seq, vector"
vector 109 Scenario.node[7].ipv4.ip packetDropNoRouteFound:vector(packetBytes) ETV
attr interpolationmode none
attr source packetDropReasonIsNoRouteFound(packetDropped)
attr title "packet drop: no route found, vector(packetBytes)"
vector 110 Scenario.node[8].ipv4.ip packetDropNoRouteFound:vector(packetBytes) ETV
attr interpolationmode none
attr source packetDropReasonIsNoRouteFound(packetDropped)
attr title "packet drop: no route found, vector(packetBytes)"
vector 111 Scenario.node[9].ipv4.ip packetDropNoRouteFound:vector(packetBytes) ETV
attr interpolationmode none
attr source packetDropReasonIsNoRouteFound(packetDropped)
attr title "packet drop: no route found, vector(packetBytes)"
vector 112 Scenario.node[10].ipv4.ip packetDropNoRouteFound:vector(packetBytes) ETV
attr interpolationmode none
attr source packetDropReasonIsNoRouteFound(packetDropped)
attr title "packet drop: no route found, vector(packetBytes)"
vector 113 Scenario.node[11].ipv4.ip packetDropNoRouteFound:vector(packetBytes) ETV
attr interpolationmode none
attr source packetDropReasonIsNoRouteFound(packetDropped)
attr title "packet drop: no route found, vector(packetBytes)"
vector 114 Scenario.node[12].ipv4.ip packetDropNoRouteFound:vector(packetBytes) ETV
attr interpolationmode none
attr source packetDropReasonIsNoRouteFound(packetDropped)
attr title "packet drop: no route found, vector(packetBytes)"
vector 115 Scenario.node[13].ipv4.ip packetDropNoRouteFound:vector(packetBytes) ETV
attr interpolationmode none
attr source packetDropReasonIsNoRouteFound(packetDropped)
attr title "packet drop: no route found, vector(packetBytes)"
vector 116 Scenario.node[14].ipv4.ip packetDropNoRouteFound:vector(packetBytes) ETV
attr interpolationmode none
attr source packetDropReasonIsNoRouteFound(packetDropped)
attr title "packet drop: no route found, vector(packetBytes)"
vector 117 Scenario.node[15].wlan[0].radio radioMode:vector ETV
attr interpolationmode sample-hold
attr source radioModeChanged
attr title "Radio mode, vector"
vector 118 Scenario.node[15].wlan[0].radio radioChannel:vector ETV
attr interpolationmode sample-hold
attr source radioChannelChanged
attr title "Radio channel, vector"
vector 119 Scenario.node[15].wlan[0].radio receptionState:vector ETV
attr interpolationmode sample-hold
attr source receptionStateChanged
attr title "Radio reception state, vector"
vector 120 Scenario.node[15].wlan[0].mac.dcf.recoveryProcedure contentionWindowChanged:vector ETV
attr interpolationmode sample-hold
attr title "contention window, vector"
vector 121 Scenario.node[16].wlan[0].radio radioMode:vector ETV
attr interpolationmode sample-hold
attr source radioModeChanged
attr title "Radio mode, vector"
vector 122 Scenario.node[16].wlan[0].radio radioChannel:vector ETV
attr interpolationmode sample-hold
attr source radioChannelChanged
attr title "Radio channel, vector"
vector 123 Scenario.node[16].wlan[0].radio receptionState:vector ETV
attr interpolationmode sample-hold
attr source receptionStateChanged
attr title "Radio reception state, vector"
vector 124 Scenario.node[16].wlan[0].mac.dcf.recoveryProcedure contentionWindowChanged:vector ETV
attr interpolationmode sample-hold
attr title "contention window, vector"
vector 125 Scenario.node[17].wlan[0].radio radioMode:vector ETV
attr interpolationmode sample-hold
attr source radioModeChanged
attr title "Radio mode, vector"
vector 126 Scenario.node[17].wlan[0].radio radioChannel:vector ETV
attr interpolationmode sample-hold
attr source radioChannelChanged
attr title "Radio channel, vector"
vector 127 Scenario.node[17].wlan[0].radio receptionState:vector ETV
attr interpolationmode sample-hold
attr source receptionStateChanged
attr title "Radio reception state, vector"
vector 128 Scenario.node[17].wlan[0].mac.dcf.recoveryProcedure contentionWindowChanged:vector ETV
attr interpolationmode sample-hold
attr title "contention window, vector"
vector 129 Scenario.node[18].wlan[0].radio radioMode:vector ETV
attr interpolationmode sample-hold
attr source radioModeChanged
attr title "Radio mode, vector"
vector 130 Scenario.node[18].wlan[0].radio radioChannel:vector ETV
attr interpolationmode sample-hold
attr source radioChannelChanged
attr title "Radio channel, vector"
vector 131 Scenario.node[18].wlan[0].radio receptionState:vector ETV
attr interpolationmode sample-hold
attr source receptionStateChanged
attr title "Radio reception state, vector"
vector 132 Scenario.node[18].wlan[0].mac.dcf.recoveryProcedure contentionWindowChanged:vector ETV
attr interpolationmode sample-hold
attr title "contention window, vector"
vector 133 Scenario.node[19].wlan[0].radio radioMode:vector ETV
attr interpolationmode sample-hold
attr source radioModeChanged
attr title "Radio mode, vector"
vector 134 Scenario.node[19].wlan[0].radio radioChannel:vector ETV
attr interpolationmode sample-hold
attr source radioChannelChanged
attr title "Radio channel, vector"
vector 135 Scenario.node[19].wlan[0].radio receptionState:vector ETV
attr interpolationmode sample-hold
attr source receptionStateChanged
attr title "Radio reception state, vector"
vector 136 Scenario.node[19].wlan[0].mac.dcf.recoveryProcedure contentionWindowChanged:vector ETV
attr interpolationmode sample-hold
attr title "contention window, vector"
vector 137 Scenario.node[20].wlan[0].radio radioMode:vector ETV
attr interpolationmode sample-hold
attr source radioModeChanged
attr title "Radio mode, vector"
vector 138 Scenario.node[20].wlan[0].radio radioChannel:vector ETV
attr interpolationmode sample-hold
attr source radioChannelChanged
attr title "Radio channel, vector"
vector 139 Scenario.node[20].wlan[0].radio receptionState:vector ETV
attr interpolationmode sample-hold
attr source receptionStateChanged
attr title "Radio reception state, vector"
vector 140 Scenario.node[20].wlan[0].mac.dcf.recoveryProcedure contentionWindowChanged:vector ETV
attr interpolationmode sample-hold
attr title "contention window, vector"
vector 141 Scenario.node[21].wlan[0].radio radioMode:vector ETV
attr interpolationmode sample-hold
attr source radioModeChanged
attr title "Radio mode, vector"
vector 142 Scenario.node[21].wlan[0].radio radioChannel:vector ETV
attr interpolationmode sample-hold
attr source radioChannelChanged
attr title "Radio channel, vector"
vector 143 Scenario.node[21].wlan[0].radio receptionState:vector ETV
attr interpolationmode sample-hold
attr source receptionStateChanged
attr title "Radio reception state, vector"
vector 144 Scenario.node[21].wlan[0].mac.dcf.recoveryProcedure contentionWindowChanged:vector ETV
attr interpolationmode sample-hold
attr title "contention window, vector"
vector 145 Scenario.node[15].app[0] pingTxSeq:vector ETV
attr interpolationmode none
attr title "ping tx seq, vector"
vector 146 Scenario.node[15].app[1] pingTxSeq:vector ETV
attr interpolationmode none
attr title "ping tx seq, vector"
vector 147 Scenario.node[16].app[0] pingTxSeq:vector ETV
attr interpolationmode none
attr title "ping tx seq, vector"
vector 148 Scenario.node[16].app[1] pingTxSeq:vector ETV
attr interpolationmode none
attr title "ping tx seq, vector"
vector 149 Scenario.node[17].app[0] pingTxSeq:vector ETV
attr interpolationmode none
attr title "ping tx seq, vector"
vector 150 Scenario.node[17].app[1] pingTxSeq:vector ETV
attr interpolationmode none
attr title "ping tx seq, vector"
vector 151 Scenario.node[18].app[0] pingTxSeq:vector ETV
attr interpolationmode none
attr title "ping tx seq, vector"
vector 152 Scenario.node[18].app[1] pingTxSeq:vector ETV
attr interpolationmode none
attr title "ping tx seq, vector"
vector 153 Scenario.node[19].app[0] pingTxSeq:vector ETV
attr interpolationmode none
attr title "ping tx seq, vector"
vector 154 Scenario.node[19].app[1] pingTxSeq:vector ETV
attr interpolationmode none
attr title "ping tx seq, vector"
vector 155 Scenario.node[20].app[0] pingTxSeq:vector ETV
attr interpolationmode none
attr title "ping tx seq, vector"
vector 156 Scenario.node[20].app[1] pingTxSeq:vector ETV
attr interpolationmode none
attr title "ping tx seq, vector"
vector 157 Scenario.node[21].app[0] pingTxSeq:vector ETV
attr interpolationmode none
attr title "ping tx seq, vector"
vector 158 Scenario.node[21].app[1] pingTxSeq:vector ETV
attr interpolationmode none
attr title "ping tx seq, vector"
vector 159 Scenario.node[15].ipv4.ip packetDropNoRouteFound:vector(packetBytes) ETV
attr interpolationmode none
attr source packetDropReasonIsNoRouteFound(packetDropped)
attr title "packet drop: no route found, vector(packetBytes)"
vector 160 Scenario.node[16].ipv4.ip packetDropNoRouteFound:vector(packetBytes) ETV
attr interpolationmode none
attr source packetDropReasonIsNoRouteFound(packetDropped)
attr title "packet drop: no route found, vector(packetBytes)"
vector 161 Scenario.node[17].ipv4.ip packetDropNoRouteFound:vector(packetBytes) ETV
attr interpolationmode none
attr source packetDropReasonIsNoRouteFound(packetDropped)
attr title "packet drop: no route found, vector(packetBytes)"
vector 162 Scenario.node[18].ipv4.ip packetDropNoRouteFound:vector(packetBytes) ETV
attr interpolationmode none
attr source packetDropReasonIsNoRouteFound(packetDropped)
attr title "packet drop: no route found, vector(packetBytes)"
vector 163 Scenario.node[19].ipv4.ip packetDropNoRouteFound:vector(packetBytes) ETV
attr interpolationmode none
attr source packetDropReasonIsNoRouteFound(packetDropped)
attr title "packet drop: no route found, vector(packetBytes)"
vector 164 Scenario.node[20].ipv4.ip packetDropNoRouteFound:vector(packetBytes) ETV
attr interpolationmode none
attr source packetDropReasonIsNoRouteFound(packetDropped)
attr title "packet drop: no route found, vector(packetBytes)"
vector 165 Scenario.node[21].ipv4.ip packetDropNoRouteFound:vector(packetBytes) ETV
attr interpolationmode none
attr source packetDropReasonIsNoRouteFound(packetDropped)
attr title "packet drop: no route found, vector(packetBytes)"
vector 166 Scenario.node[22].wlan[0].radio radioMode:vector ETV
attr interpolationmode sample-hold
attr source radioModeChanged
attr title "Radio mode, vector"
vector 167 Scenario.node[22].wlan[0].radio radioChannel:vector ETV
attr interpolationmode sample-hold
attr source radioChannelChanged
attr title "Radio channel, vector"
vector 168 Scenario.node[22].wlan[0].radio receptionState:vector ETV
attr interpolationmode sample-hold
attr source receptionStateChanged
attr title "Radio reception state, vector"
vector 169 Scenario.node[22].wlan[0].mac.dcf.recoveryProcedure contentionWindowChanged:vector ETV
attr interpolationmode sample-hold
attr title "contention window, vector"
vector 170 Scenario.node[23].wlan[0].radio radioMode:vector ETV
attr interpolationmode sample-hold
attr source radioModeChanged
attr title "Radio mode, vector"
vector 171 Scenario.node[23].wlan[0].radio radioChannel:vector ETV
attr interpolationmode sample-hold
attr source radioChannelChanged
attr title "Radio channel, vector"
vector 172 Scenario.node[23].wlan[0].radio receptionState:vector ETV
attr interpolationmode sample-hold
attr source receptionStateChanged
attr title "Radio reception state, vector"
vector 173 Scenario.node[23].wlan[0].mac.dcf.recoveryProcedure contentionWindowChanged:vector ETV
attr interpolationmode sample-hold
attr title "contention window, vector"
vector 174 Scenario.node[24].wlan[0].radio radioMode:vector ETV
attr interpolationmode sample-hold
attr source radioModeChanged
attr title "Radio mode, vector"
vector 175 Scenario.node[24].wlan[0].radio radioChannel:vector ETV
attr interpolationmode sample-hold
attr source radioChannelChanged
attr title "Radio channel, vector"
vector 176 Scenario.node[24].wlan[0].radio receptionState:vector ETV
attr interpolationmode sample-hold
attr source receptionStateChanged
attr title "Radio reception state, vector"
vector 177 Scenario.node[24].wlan[0].mac.dcf.recoveryProcedure contentionWindowChanged:vector ETV
attr interpolationmode sample-hold
attr title "contention window, vector"
vector 178 Scenario.node[25].wlan[0].radio radioMode:vector ETV
attr interpolationmode sample-hold
attr source radioModeChanged
attr title "Radio mode, vector"
vector 179 Scenario.node[25].wlan[0].radio radioChannel:vector ETV
attr interpolationmode sample-hold
attr source radioChannelChanged
attr title "Radio channel, vector"
vector 180 Scenario.node[25].wlan[0].radio receptionState:vector ETV
attr interpolationmode sample-hold
attr source receptionStateChanged
attr title "Radio reception state, vector"
vector 181 Scenario.node[25].wlan[0].mac.dcf.recoveryProcedure contentionWindowChanged:vector ETV
attr interpolationmode sample-hold
attr title "contention window, vector"
vector 182 Scenario.node[26].wlan[0].radio radioMode:vector ETV
attr interpolationmode sample-hold
attr source radioModeChanged
attr title "Radio mode, vector"
vector 183 Scenario.node[26].wlan[0].radio radioChannel:vector ETV
attr interpolationmode sample-hold
attr source radioChannelChanged
attr title "Radio channel, vector"
vector 184 Scenario.node[26].wlan[0].radio receptionState:vector ETV
attr interpolationmode sample-hold
attr source receptionStateChanged
attr title "Radio reception state, vector"
vector 185 Scenario.node[26].wlan[0].mac.dcf.recoveryProcedure contentionWindowChanged:vector ETV
attr interpolationmode sample-hold
attr title "contention window, vector"
vector 186 Scenario.node[27].wlan[0].radio radioMode:vector ETV
attr interpolationmode sample-hold
attr source radioModeChanged
attr title "Radio mode, vector"
vector 187 Scenario.node[27].wlan[0].radio radioChannel:vector ETV
attr interpolationmode sample-hold
attr source radioChannelChanged
attr title "Radio channel, vector"
vector 188 Scenario.node[27].wlan[0].radio receptionState:vector ETV
attr interpolationmode sample-hold
attr source receptionStateChanged
attr title "Radio reception state, vector"
vector 189 Scenario.node[27].wlan[0].mac.dcf.recoveryProcedure contentionWindowChanged:vector ETV
attr interpolationmode sample-hold
attr title "contention window, vector"
vector 190 Scenario.node[28].wlan[0].radio radioMode:vector ETV
attr interpolationmode sample-hold
attr source radioModeChanged
attr title "Radio mode, vector"
vector 191 Scenario.node[28].wlan[0].radio radioChannel:vector ETV
attr interpolationmode sample-hold
attr source radioChannelChanged
attr title "Radio channel, vector"
vector 192 Scenario.node[28].wlan[0].radio receptionState:vector ETV
attr interpolationmode sample-hold
attr source receptionStateChanged
attr title "Radio reception state, vector"
vector 193 Scenario.node[28].wlan[0].mac.dcf.recoveryProcedure contentionWindowChanged:vector ETV
attr interpolationmode sample-hold
attr title "contention window, vector"
vector 194 Scenario.node[29].wlan[0].radio radioMode:vector ETV
attr interpolationmode sample-hold
attr source radioModeChanged
attr title "Radio mode, vector"
vector 195 Scenario.node[29].wlan[0].radio radioChannel:vector ETV
attr interpolationmode sample-hold
attr source radioChannelChanged
attr title "Radio channel, vector"
vector 196 Scenario.node[29].wlan[0].radio receptionState:vector ETV
attr interpolationmode sample-hold
attr source receptionStateChanged
attr title "Radio reception state, vector"
vector 197 Scenario.node[29].wlan[0].mac.dcf.recoveryProcedure contentionWindowChanged:vector ETV
attr interpolationmode sample-hold
attr title "contention window, vector"
vector 198 Scenario.node[22].app[0] pingTxSeq:vector ETV
attr interpolationmode none
attr title "ping tx seq, vector"
vector 199 Scenario.node[22].app[1] pingTxSeq:vector ETV
attr interpolationmode none
attr title "ping tx seq, vector"
vector 200 Scenario.node[23].app[0] pingTxSeq:vector ETV
attr interpolationmode none
attr title "ping tx seq, vector"
vector 201 Scenario.node[23].app[1] pingTxSeq:vector ETV
attr interpolationmode none
attr title "ping tx seq, vector"
vector 202 Scenario.node[24].app[0] pingTxSeq:vector ETV
attr interpolationmode none
attr title "ping tx seq, vector"
vector 203 Scenario.node[24].app[1] pingTxSeq:vector ETV
attr interpolationmode none
attr title "ping tx seq, vector"
vector 204 Scenario.node[25].app[0] pingTxSeq:vector ETV
attr interpolationmode none
attr title "ping tx seq, vector"
vector 205 Scenario.node[25].app[1] pingTxSeq:vector ETV
attr interpolationmode none
attr title "ping tx seq, vector"
vector 206 Scenario.node[26].app[0] pingTxSeq:vector ETV
attr interpolationmode none
attr title "ping tx seq, vector"
vector 207 Scenario.node[26].app[1] pingTxSeq:vector ETV
attr interpolationmode none
attr title "ping tx seq, vector"
vector 208 Scenario.node[27].app[0] pingTxSeq:vector ETV
attr interpolationmode none
attr title "ping tx seq, vector"
vector 209 Scenario.node[27].app[1] pingTxSeq:vector ETV
attr interpolationmode none
attr title "ping tx seq, vector"
vector 210 Scenario.node[28].app[0] pingTxSeq:vector ETV
attr interpolationmode none
attr title "ping tx seq, vector"
vector 211 Scenario.node[28].app[1] pingTxSeq:vector ETV
attr interpolationmode none
attr title "ping tx seq, vector"
vector 212 Scenario.node[29].app[0] pingTxSeq:vector ETV
attr interpolationmode none
attr title "ping tx seq, vector"
vector 213 Scenario.node[29].app[1] pingTxSeq:vector ETV
attr interpolationmode none
attr title "ping tx seq, vector"
vector 214 Scenario.node[22].ipv4.ip packetDropNoRouteFound:vector(packetBytes) ETV
attr interpolationmode none
attr source packetDropReasonIsNoRouteFound(packetDropped)
attr title "packet drop: no route found, vector(packetBytes)"
vector 215 Scenario.node[23].ipv4.ip packetDropNoRouteFound:vector(packetBytes) ETV
attr interpolationmode none
attr source packetDropReasonIsNoRouteFound(packetDropped)
attr title "packet drop: no route found, vector(packetBytes)"
vector 216 Scenario.node[24].ipv4.ip packetDropNoRouteFound:vector(packetBytes) ETV
attr interpolationmode none
attr source packetDropReasonIsNoRouteFound(packetDropped)
attr title "packet drop: no route found, vector(packetBytes)"
vector 217 Scenario.node[25].ipv4.ip packetDropNoRouteFound:vector(packetBytes) ETV
attr interpolationmode none
attr source packetDropReasonIsNoRouteFound(packetDropped)
attr title "packet drop: no route found, vector(packetBytes)"
vector 218 Scenario.node[26].ipv4.ip packetDropNoRouteFound:vector(packetBytes) ETV
attr interpolationmode none
attr source packetDropReasonIsNoRouteFound(packetDropped)
attr title "packet drop: no route found, vector(packetBytes)"
vector 219 Scenario.node[27].ipv4.ip packetDropNoRouteFound:vector(packetBytes) ETV
attr interpolationmode none
attr source packetDropReasonIsNoRouteFound(packetDropped)
attr title "packet drop: no route found, vector(packetBytes)"
vector 220 Scenario.node[28].ipv4.ip packetDropNoRouteFound:vector(packetBytes) ETV
attr interpolationmode none
attr source packetDropReasonIsNoRouteFound(packetDropped)
attr title "packet drop: no route found, vector(packetBytes)"
vector 221 Scenario.node[29].ipv4.ip packetDropNoRouteFound:vector(packetBytes) ETV
attr interpolationmode none
attr source packetDropReasonIsNoRouteFound(packetDropped)
attr title "packet drop: no route found, vector(packetBytes)"
vector 222 Scenario.node[30].wlan[0].radio radioMode:vector ETV
attr interpolationmode sample-hold
attr source radioModeChanged
attr title "Radio mode, vector"
vector 223 Scenario.node[30].wlan[0].radio radioChannel:vector ETV
attr interpolationmode sample-hold
attr source radioChannelChanged
attr title "Radio channel, vector"
vector 224 Scenario.node[30].wlan[0].radio receptionState:vector ETV
attr interpolationmode sample-hold
attr source receptionStateChanged
attr title "Radio reception state, vector"
vector 225 Scenario.node[30].wlan[0].mac.dcf.recoveryProcedure contentionWindowChanged:vector ETV
attr interpolationmode sample-hold
attr title "contention window, vector"
vector 226 Scenario.node[31].wlan[0].radio radioMode:vector ETV
attr interpolationmode sample-hold
attr source radioModeChanged
attr title "Radio mode, vector"
vector 227 Scenario.node[31].wlan[0].radio radioChannel:vector ETV
attr interpolationmode sample-hold
attr source radioChannelChanged
attr title "Radio channel, vector"
vector 228 Scenario.node[31].wlan[0].radio receptionState:vector ETV
attr interpolationmode sample-hold
attr source receptionStateChanged
attr title "Radio reception state, vector"
vector 229 Scenario.node[31].wlan[0].mac.dcf.recoveryProcedure contentionWindowChanged:vector ETV
attr interpolationmode sample-hold
attr title "contention window, vector"
vector 230 Scenario.node[32].wlan[0].radio radioMode:vector ETV
attr interpolationmode sample-hold
attr source radioModeChanged
attr title "Radio mode, vector"
vector 231 Scenario.node[32].wlan[0].radio radioChannel:vector ETV
attr interpolationmode sample-hold
attr source radioChannelChanged
attr title "Radio channel, vector"
vector 232 Scenario.node[32].wlan[0].radio receptionState:vector ETV
attr interpolationmode sample-hold
attr source receptionStateChanged
attr title "Radio reception state, vector"
vector 233 Scenario.node[32].wlan[0].mac.dcf.recoveryProcedure contentionWindowChanged:vector ETV
attr interpolationmode sample-hold
attr title "contention window, vector"
vector 234 Scenario.node[33].wlan[0].radio radioMode:vector ETV
attr interpolationmode sample-hold
attr source radioModeChanged
attr title "Radio mode, vector"
vector 235 Scenario.node[33].wlan[0].radio radioChannel:vector ETV
attr interpolationmode sample-hold
attr source radioChannelChanged
attr title "Radio channel, vector"
vector 236 Scenario.node[33].wlan[0].radio receptionState:vector ETV
attr interpolationmode sample-hold
attr source receptionStateChanged
attr title "Radio reception state, vector"
vector 237 Scenario.node[33].wlan[0].mac.dcf.recoveryProcedure contentionWindowChanged:vector ETV
attr interpolationmode sample-hold
attr title "contention window, vector"
vector 238 Scenario.node[34].wlan[0].radio radioMode:vector ETV
attr interpolationmode sample-hold
attr source radioModeChanged
attr title "Radio mode, vector"
vector 239 Scenario.node[34].wlan[0].radio radioChannel:vector ETV
attr interpolationmode sample-hold
attr source radioChannelChanged
attr title "Radio channel, vector"
vector 240 Scenario.node[34].wlan[0].radio receptionState:vector ETV
attr interpolationmode sample-hold
attr source receptionStateChanged
attr title "Radio reception state, vector"
vector 241 Scenario.node[34].wlan[0].mac.dcf.recoveryProcedure contentionWindowChanged:vector ETV
attr interpolationmode sample-hold
attr title "contention window, vector"
vector 242 Scenario.node[35].wlan[0].radio radioMode:vector ETV
attr interpolationmode sample-hold
attr source radioModeChanged
attr title "Radio mode, vector"
vector 243 Scenario.node[35].wlan[0].radio radioChannel:vector ETV
attr interpolationmode sample-hold
attr source radioChannelChanged
attr title "Radio channel, vector"
vector 244 Scenario.node[35].wlan[0].radio receptionState:vector ETV
attr interpolationmode sample-hold
attr source receptionStateChanged
attr title "Radio reception state, vector"
vector 245 Scenario.node[35].wlan[0].mac.dcf.recoveryProcedure contentionWindowChanged:vector ETV
attr interpolationmode sample-hold
attr title "contention window, vector"
vector 246 Scenario.node[30].app[0] pingTxSeq:vector ETV
attr interpolationmode none
attr title "ping tx seq, vector"
vector 247 Scenario.node[30].app[1] pingTxSeq:vector ETV
attr interpolationmode none
attr title "ping tx seq, vector"
vector 248 Scenario.node[31].app[0] pingTxSeq:vector ETV
attr interpolationmode none
attr title "ping tx seq, vector"
vector 249 Scenario.node[31].app[1] pingTxSeq:vector ETV
attr interpolationmode none
attr title "ping tx seq, vector"
vector 250 Scenario.node[32].app[0] pingTxSeq:vector ETV
attr interpolationmode none
attr title "ping tx seq, vector"
vector 251 Scenario.node[32].app[1] pingTxSeq:vector ETV
attr interpolationmode none
attr title "ping tx seq, vector"
vector 252 Scenario.node[33].app[0] pingTxSeq:vector ETV
attr interpolationmode none
attr title "ping tx seq, vector"
vector 253 Scenario.node[33].app[1] pingTxSeq:vector ETV
attr interpolationmode none
attr title "ping tx seq, vector"
vector 254 Scenario.node[34].app[0] pingTxSeq:vector ETV
attr interpolationmode none
attr title "ping tx seq, vector"
vector 255 Scenario.node[34].app[1] pingTxSeq:vector ETV
attr interpolationmode none
attr title "ping tx seq, vector"
vector 256 Scenario.node[35].app[0] pingTxSeq:vector ETV
attr interpolationmode none
attr title "ping tx seq, vector"
vector 257 Scenario.node[35].app[1] pingTxSeq:vector ETV
attr interpolationmode none
attr title "ping tx seq, vector"
vector 258 Scenario.node[30].ipv4.ip packetDropNoRouteFound:vector(packetBytes) ETV
attr interpolationmode none
attr source packetDropReasonIsNoRouteFound(packetDropped)
attr title "packet drop: no route found, vector(packetBytes)"
vector 259 Scenario.node[31].ipv4.ip packetDropNoRouteFound:vector(packetBytes) ETV
attr interpolationmode none
attr source packetDropReasonIsNoRouteFound(packetDropped)
attr title "packet drop: no route found, vector(packetBytes)"
vector 260 Scenario.node[32].ipv4.ip packetDropNoRouteFound:vector(packetBytes) ETV
attr interpolationmode none
attr source packetDropReasonIsNoRouteFound(packetDropped)
attr title "packet drop: no route found, vector(packetBytes)"
vector 261 Scenario.node[33].ipv4.ip packetDropNoRouteFound:vector(packetBytes) ETV
attr interpolationmode none
attr source packetDropReasonIsNoRouteFound(packetDropped)
attr title "packet drop: no route found, vector(packetBytes)"
vector 262 Scenario.node[34].ipv4.ip packetDropNoRouteFound:vector(packetBytes) ETV
attr interpolationmode none
attr source packetDropReasonIsNoRouteFound(packetDropped)
attr title "packet drop: no route found, vector(packetBytes)"
vector 263 Scenario.node[35].ipv4.ip packetDropNoRouteFound:vector(packetBytes) ETV
attr interpolationmode none
attr source packetDropReasonIsNoRouteFound(packetDropped)
attr title "packet drop: no route found, vector(packetBytes)"
vector 264 Scenario.node[36].wlan[0].radio radioMode:vector ETV
attr interpolationmode sample-hold
attr source radioModeChanged
attr title "Radio mode, vector"
vector 265 Scenario.node[36].wlan[0].radio radioChannel:vector ETV
attr interpolationmode sample-hold
attr source radioChannelChanged
attr title "Radio channel, vector"
vector 266 Scenario.node[36].wlan[0].radio receptionState:vector ETV
attr interpolationmode sample-hold
attr source receptionStateChanged
attr title "Radio reception state, vector"
vector 267 Scenario.node[36].wlan[0].mac.dcf.recoveryProcedure contentionWindowChanged:vector ETV
attr interpolationmode sample-hold
attr title "contention window, vector"
vector 268 Scenario.node[37].wlan[0].radio radioMode:vector ETV
attr interpolationmode sample-hold
attr source radioModeChanged
attr title "Radio mode, vector"
vector 269 Scenario.node[37].wlan[0].radio radioChannel:vector ETV
attr interpolationmode sample-hold
attr source radioChannelChanged
attr title "Radio channel, vector"
vector 270 Scenario.node[37].wlan[0].radio receptionState:vector ETV
attr interpolationmode sample-hold
attr source receptionStateChanged
attr title "Radio reception state, vector"
vector 271 Scenario.node[37].wlan[0].mac.dcf.recoveryProcedure contentionWindowChanged:vector ETV
attr interpolationmode sample-hold
attr title "contention window, vector"
vector 272 Scenario.node[38].wlan[0].radio radioMode:vector ETV
attr interpolationmode sample-hold
attr source radioModeChanged
attr title "Radio mode, vector"
vector 273 Scenario.node[38].wlan[0].radio radioChannel:vector ETV
attr interpolationmode sample-hold
attr source radioChannelChanged
attr title "Radio channel, vector"
vector 274 Scenario.node[38].wlan[0].radio receptionState:vector ETV
attr interpolationmode sample-hold
attr source receptionStateChanged
attr title "Radio reception state, vector"
vector 275 Scenario.node[38].wlan[0].mac.dcf.recoveryProcedure contentionWindowChanged:vector ETV
attr interpolationmode sample-hold
attr title "contention window, vector"
vector 276 Scenario.node[39].wlan[0].radio radioMode:vector ETV
attr interpolationmode sample-hold
attr source radioModeChanged
attr title "Radio mode, vector"
vector 277 Scenario.node[39].wlan[0].radio radioChannel:vector ETV
attr interpolationmode sample-hold
attr source radioChannelChanged
attr title "Radio channel, vector"
vector 278 Scenario.node[39].wlan[0].radio receptionState:vector ETV
attr interpolationmode sample-hold
attr source receptionStateChanged
attr title "Radio reception state, vector"
vector 279 Scenario.node[39].wlan[0].mac.dcf.recoveryProcedure contentionWindowChanged:vector ETV
attr interpolationmode sample-hold
attr title "contention window, vector"
vector 280 Scenario.node[40].wlan[0].radio radioMode:vector ETV
attr interpolationmode sample-hold
attr source radioModeChanged
attr title "Radio mode, vector"
vector 281 Scenario.node[40].wlan[0].radio radioChannel:vector ETV
attr interpolationmode sample-hold
attr source radioChannelChanged
attr title "Radio channel, vector"
vector 282 Scenario.node[40].wlan[0].radio receptionState:vector ETV
attr interpolationmode sample-hold
attr source receptionStateChanged
attr title "Radio reception state, vector"
vector 283 Scenario.node[40].wlan[0].mac.dcf.recoveryProcedure contentionWindowChanged:vector ETV
attr interpolationmode sample-hold
attr title "contention window, vector"
vector 284 Scenario.node[41].wlan[0].radio radioMode:vector ETV
attr interpolationmode sample-hold
attr source radioModeChanged
attr title "Radio mode, vector"
vector 285 Scenario.node[41].wlan[0].radio radioChannel:vector ETV
attr interpolationmode sample-hold
attr source radioChannelChanged
attr title "Radio channel, vector"
vector 286 Scenario.node[41].wlan[0].radio receptionState:vector ETV
attr interpolationmode sample-hold
attr source receptionStateChanged
attr title "Radio reception state, vector"
vector 287 Scenario.node[41].wlan[0].mac.dcf.recoveryProcedure contentionWindowChanged:vector ETV
attr interpolationmode sample-hold
attr title "contention window, vector"
vector 288 Scenario.node[36].app[0] pingTxSeq:vector ETV
attr interpolationmode none
attr title "ping tx seq, vector"
vector 289 Scenario.node[36].app[1] pingTxSeq:vector ETV
attr interpolationmode none
attr title "ping tx seq, vector"
vector 290 Scenario.node[37].app[0] pingTxSeq:vector ETV
attr interpolationmode none
attr title "ping tx seq, vector"
vector 291 Scenario.node[37].app[1] pingTxSeq:vector ETV
attr interpolationmode none
attr title "ping tx seq, vector"
vector 292 Scenario.node[38].app[0] pingTxSeq:vector ETV
attr interpolationmode none
attr title "ping tx seq, vector"
vector 293 Scenario.node[38].app[1] pingTxSeq:vector ETV
attr interpolationmode none
attr title "ping tx seq, vector"
vector 294 Scenario.node[39].app[0] pingTxSeq:vector ETV
attr interpolationmode none
attr title "ping tx seq, vector"
vector 295 Scenario.node[39].app[1] pingTxSeq:vector ETV
attr interpolationmode none
attr title "ping tx seq, vector"
vector 296 Scenario.node[40].app[0] pingTxSeq:vector ETV
attr interpolationmode none
attr title "ping tx seq, vector"
vector 297 Scenario.node[40].app[1] pingTxSeq:vector ETV
attr interpolationmode none
attr title "ping tx seq, vector"
vector 298 Scenario.node[41].app[0] pingTxSeq:vector ETV
attr interpolationmode none
attr title "ping tx seq, vector"
vector 299 Scenario.node[41].app[1] pingTxSeq:vector ETV
attr interpolationmode none
attr title "ping tx seq, vector"
vector 300 Scenario.node[36].ipv4.ip packetDropNoRouteFound:vector(packetBytes) ETV
attr interpolationmode none
attr source packetDropReasonIsNoRouteFound(packetDropped)
attr title "packet drop: no route found, vector(packetBytes)"
vector 301 Scenario.node[37].ipv4.ip packetDropNoRouteFound:vector(packetBytes) ETV
attr interpolationmode none
attr source packetDropReasonIsNoRouteFound(packetDropped)
attr title "packet drop: no route found, vector(packetBytes)"
vector 302 Scenario.node[38].ipv4.ip packetDropNoRouteFound:vector(packetBytes) ETV
attr interpolationmode none
attr source packetDropReasonIsNoRouteFound(packetDropped)
attr title "packet drop: no route found, vector(packetBytes)"
vector 303 Scenario.node[39].ipv4.ip packetDropNoRouteFound:vector(packetBytes) ETV
attr interpolationmode none
attr source packetDropReasonIsNoRouteFound(packetDropped)
attr title "packet drop: no route found, vector(packetBytes)"
vector 304 Scenario.node[40].ipv4.ip packetDropNoRouteFound:vector(packetBytes) ETV
attr interpolationmode none
attr source packetDropReasonIsNoRouteFound(packetDropped)
attr title "packet drop: no route found, vector(packetBytes)"
vector 305 Scenario.node[41].ipv4.ip packetDropNoRouteFound:vector(packetBytes) ETV
attr interpolationmode none
attr source packetDropReasonIsNoRouteFound(packetDropped)
attr title "packet drop: no route found, vector(packetBytes)"
vector 306 Scenario.node[42].wlan[0].radio radioMode:vector ETV
attr interpolationmode sample-hold
attr source radioModeChanged
attr title "Radio mode, vector"
vector 307 Scenario.node[42].wlan[0].radio radioChannel:vector ETV
attr interpolationmode sample-hold
attr source radioChannelChanged
attr title "Radio channel, vector"
vector 308 Scenario.node[42].wlan[0].radio receptionState:vector ETV
attr interpolationmode sample-hold
attr source receptionStateChanged
attr title "Radio reception state, vector"
vector 309 Scenario.node[42].wlan[0].mac.dcf.recoveryProcedure contentionWindowChanged:vector ETV
attr interpolationmode sample-hold
attr title "contention window, vector"
vector 310 Scenario.node[43].wlan[0].radio radioMode:vector ETV
attr interpolationmode sample-hold
attr source radioModeChanged
attr title "Radio mode, vector"
vector 311 Scenario.node[43].wlan[0].radio radioChannel:vector ETV
attr interpolationmode sample-hold
attr source radioChannelChanged
attr title "Radio channel, vector"
vector 312 Scenario.node[43].wlan[0].radio receptionState:vector ETV
attr interpolationmode sample-hold
attr source receptionStateChanged
attr title "Radio reception state, vector"
vector 313 Scenario.node[43].wlan[0].mac.dcf.recoveryProcedure contentionWindowChanged:vector ETV
attr interpolationmode sample-hold
attr title "contention window, vector"
vector 314 Scenario.node[44].wlan[0].radio radioMode:vector ETV
attr interpolationmode sample-hold
attr source radioModeChanged
attr title "Radio mode, vector"
vector 315 Scenario.node[44].wlan[0].radio radioChannel:vector ETV
attr interpolationmode sample-hold
attr source radioChannelChanged
attr title "Radio channel, vector"
vector 316 Scenario.node[44].wlan[0].radio receptionState:vector ETV
attr interpolationmode sample-hold
attr source receptionStateChanged
attr title "Radio reception state, vector"
vector 317 Scenario.node[44].wlan[0].mac.dcf.recoveryProcedure contentionWindowChanged:vector ETV
attr interpolationmode sample-hold
attr title "contention window, vector"
vector 318 Scenario.node[45].wlan[0].radio radioMode:vector ETV
attr interpolationmode sample-hold
attr source radioModeChanged
attr title "Radio mode, vector"
vector 319 Scenario.node[45].wlan[0].radio radioChannel:vector ETV
attr interpolationmode sample-hold
attr source radioChannelChanged
attr title "Radio channel, vector"
vector 320 Scenario.node[45].wlan[0].radio receptionState:vector ETV
attr interpolationmode sample-hold
attr source receptionStateChanged
attr title "Radio reception state, vector"
vector 321 Scenario.node[45].wlan[0].mac.dcf.recoveryProcedure contentionWindowChanged:vector ETV
attr interpolationmode sample-hold
attr title "contention window, vector"
vector 322 Scenario.node[46].wlan[0].radio radioMode:vector ETV
attr interpolationmode sample-hold
attr source radioModeChanged
attr title "Radio mode, vector"
vector 323 Scenario.node[46].wlan[0].radio radioChannel:vector ETV
attr interpolationmode sample-hold
attr source radioChannelChanged
attr title "Radio channel, vector"
vector 324 Scenario.node[46].wlan[0].radio receptionState:vector ETV
attr interpolationmode sample-hold
attr source receptionStateChanged
attr title "Radio reception state, vector"
vector 325 Scenario.node[46].wlan[0].mac.dcf.recoveryProcedure contentionWindowChanged:vector ETV
attr interpolationmode sample-hold
attr title "contention window, vector"
vector 326 Scenario.node[47].wlan[0].radio radioMode:vector ETV
attr interpolationmode sample-hold
attr source radioModeChanged
attr title "Radio mode, vector"
vector 327 Scenario.node[47].wlan[0].radio radioChannel:vector ETV
attr interpolationmode sample-hold
attr source radioChannelChanged
attr title "Radio channel, vector"
vector 328 Scenario.node[47].wlan[0].radio receptionState:vector ETV
attr interpolationmode sample-hold
attr source receptionStateChanged
attr title "Radio reception state, vector"
vector 329 Scenario.node[47].wlan[0].mac.dcf.recoveryProcedure contentionWindowChanged:vector ETV
attr interpolationmode sample-hold
attr title "contention window, vector"
vector 330 Scenario.node[48].wlan[0].radio radioMode:vector ETV
attr interpolationmode sample-hold
attr source radioModeChanged
attr title "Radio mode, vector"
vector 331 Scenario.node[48].wlan[0].radio radioChannel:vector ETV
attr interpolationmode sample-hold
attr source radioChannelChanged
attr title "Radio channel, vector"
vector 332 Scenario.node[48].wlan[0].radio receptionState:vector ETV
attr interpolationmode sample-hold
attr source receptionStateChanged
attr title "Radio reception state, vector"
vector 333 Scenario.node[48].wlan[0].mac.dcf.recoveryProcedure contentionWindowChanged:vector ETV
attr interpolationmode sample-hold
attr title "contention window, vector"
vector 334 Scenario.node[42].app[0] pingTxSeq:vector ETV
attr interpolationmode none
attr title "ping tx seq, vector"
vector 335 Scenario.node[42].app[1] pingTxSeq:vector ETV
attr interpolationmode none
attr title "ping tx seq, vector"
vector 336 Scenario.node[43].app[0] pingTxSeq:vector ETV
attr interpolationmode none
attr title "ping tx seq, vector"
vector 337 Scenario.node[43].app[1] pingTxSeq:vector ETV
attr interpolationmode none
attr title "ping tx seq, vector"
vector 338 Scenario.node[44].app[0] pingTxSeq:vector ETV
attr interpolationmode none
attr title "ping tx seq, vector"
vector 339 Scenario.node[44].app[1] pingTxSeq:vector ETV
attr interpolationmode none
attr title "ping tx seq, vector"
vector 340 Scenario.node[45].app[0] pingTxSeq:vector ETV
attr interpolationmode none
attr title "ping tx seq, vector"
vector 341 Scenario.node[45].app[1] pingTxSeq:vector ETV
attr interpolationmode none
attr title "ping tx seq, vector"
vector 342 Scenario.node[46].app[0] pingTxSeq:vector ETV
attr interpolationmode none
attr title "ping tx seq, vector"
vector 343 Scenario.node[46].app[1] pingTxSeq:vector ETV
attr interpolationmode none
attr title "ping tx seq, vector"
vector 344 Scenario.node[47].app[0] pingTxSeq:vector ETV
attr interpolationmode none
attr title "ping tx seq, vector"
vector 345 Scenario.node[47].app[1] pingTxSeq:vector ETV
attr interpolationmode none
attr title "ping tx seq, vector"
vector 346 Scenario.node[48].app[0] pingTxSeq:vector ETV
attr interpolationmode none
attr title "ping tx seq, vector"
vector 347 Scenario.node[48].app[1] pingTxSeq:vector ETV
attr interpolationmode none
attr title "ping tx seq, vector"
vector 348 Scenario.node[42].ipv4.ip packetDropNoRouteFound:vector(packetBytes) ETV
attr interpolationmode none
attr source packetDropReasonIsNoRouteFound(packetDropped)
attr title "packet drop: no route found, vector(packetBytes)"
vector 349 Scenario.node[43].ipv4.ip packetDropNoRouteFound:vector(packetBytes) ETV
attr interpolationmode none
attr source packetDropReasonIsNoRouteFound(packetDropped)
attr title "packet drop: no route found, vector(packetBytes)"
vector 350 Scenario.node[44].ipv4.ip packetDropNoRouteFound:vector(packetBytes) ETV
attr interpolationmode none
attr source packetDropReasonIsNoRouteFound(packetDropped)
attr title "packet drop: no route found, vector(packetBytes)"
vector 351 Scenario.node[45].ipv4.ip packetDropNoRouteFound:vector(packetBytes) ETV
attr interpolationmode none
attr source packetDropReasonIsNoRouteFound(packetDropped)
attr title "packet drop: no route found, vector(packetBytes)"
vector 352 Scenario.node[46].ipv4.ip packetDropNoRouteFound:vector(packetBytes) ETV
attr interpolationmode none
attr source packetDropReasonIsNoRouteFound(packetDropped)
attr title "packet drop: no route found, vector(packetBytes)"
vector 353 Scenario.node[47].ipv4.ip packetDropNoRouteFound:vector(packetBytes) ETV
attr interpolationmode none
attr source packetDropReasonIsNoRouteFound(packetDropped)
attr title "packet drop: no route found, vector(packetBytes)"
vector 354 Scenario.node[48].ipv4.ip packetDropNoRouteFound:vector(packetBytes) ETV
attr interpolationmode none
attr source packetDropReasonIsNoRouteFound(packetDropped)
attr title "packet drop: no route found, vector(packetBytes)"
vector 355 Scenario.node[49].wlan[0].radio radioMode:vector ETV
attr interpolationmode sample-hold
attr source radioModeChanged
attr title "Radio mode, vector"
vector 356 Scenario.node[49].wlan[0].radio radioChannel:vector ETV
attr interpolationmode sample-hold
attr source radioChannelChanged
attr title "Radio channel, vector"
vector 357 Scenario.node[49].wlan[0].radio receptionState:vector ETV
attr interpolationmode sample-hold
attr source receptionStateChanged
attr title "Radio reception state, vector"
vector 358 Scenario.node[49].wlan[0].mac.dcf.recoveryProcedure contentionWindowChanged:vector ETV
attr interpolationmode sample-hold
attr title "contention window, vector"
vector 359 Scenario.node[50].wlan[0].radio radioMode:vector ETV
attr interpolationmode sample-hold
attr source radioModeChanged
attr title "Radio mode, vector"
vector 360 Scenario.node[50].wlan[0].radio radioChannel:vector ETV
attr interpolationmode sample-hold
attr source radioChannelChanged
attr title "Radio channel, vector"
vector 361 Scenario.node[50].wlan[0].radio receptionState:vector ETV
attr interpolationmode sample-hold
attr source receptionStateChanged
attr title "Radio reception state, vector"
vector 362 Scenario.node[50].wlan[0].mac.dcf.recoveryProcedure contentionWindowChanged:vector ETV
attr interpolationmode sample-hold
attr title "contention window, vector"
vector 363 Scenario.node[51].wlan[0].radio radioMode:vector ETV
attr interpolationmode sample-hold
attr source radioModeChanged
attr title "Radio mode, vector"
vector 364 Scenario.node[51].wlan[0].radio radioChannel:vector ETV
attr interpolationmode sample-hold
attr source radioChannelChanged
attr title "Radio channel, vector"
vector 365 Scenario.node[51].wlan[0].radio receptionState:vector ETV
attr interpolationmode sample-hold
attr source receptionStateChanged
attr title "Radio reception state, vector"
vector 366 Scenario.node[51].wlan[0].mac.dcf.recoveryProcedure contentionWindowChanged:vector ETV
attr interpolationmode sample-hold
attr title "contention window, vector"
vector 367 Scenario.node[52].wlan[0].radio radioMode:vector ETV
attr interpolationmode sample-hold
attr source radioModeChanged
attr title "Radio mode, vector"
vector 368 Scenario.node[52].wlan[0].radio radioChannel:vector ETV
attr interpolationmode sample-hold
attr source radioChannelChanged
attr title "Radio channel, vector"
vector 369 Scenario.node[52].wlan[0].radio receptionState:vector ETV
attr interpolationmode sample-hold
attr source receptionStateChanged
attr title "Radio reception state, vector"
vector 370 Scenario.node[52].wlan[0].mac.dcf.recoveryProcedure contentionWindowChanged:vector ETV
attr interpolationmode sample-hold
attr title "contention window, vector"
vector 371 Scenario.node[53].wlan[0].radio radioMode:vector ETV
attr interpolationmode sample-hold
attr source radioModeChanged
attr title "Radio mode, vector"
vector 372 Scenario.node[53].wlan[0].radio radioChannel:vector ETV
attr interpolationmode sample-hold
attr source radioChannelChanged
attr title "Radio channel, vector"
vector 373 Scenario.node[53].wlan[0].radio receptionState:vector ETV
attr interpolationmode sample-hold
attr source receptionStateChanged
attr title "Radio reception state, vector"
vector 374 Scenario.node[53].wlan[0].mac.dcf.recoveryProcedure contentionWindowChanged:vector ETV
attr interpolationmode sample-hold
attr title "contention window, vector"
vector 375 Scenario.node[49].app[0] pingTxSeq:vector ETV
attr interpolationmode none
attr title "ping tx seq, vector"
vector 376 Scenario.node[49].app[1] pingTxSeq:vector ETV
attr interpolationmode none
attr title "ping tx seq, vector"
vector 377 Scenario.node[50].app[0] pingTxSeq:vector ETV
attr interpolationmode none
attr title "ping tx seq, vector"
vector 378 Scenario.node[50].app[1] pingTxSeq:vector ETV
attr interpolationmode none
attr title "ping tx seq, vector"
vector 379 Scenario.node[51].app[0] pingTxSeq:vector ETV
attr interpolationmode none
attr title "ping tx seq, vector"
vector 380 Scenario.node[51].app[1] pingTxSeq:vector ETV
attr interpolationmode none
attr title "ping tx seq, vector"
vector 381 Scenario.node[52].app[0] pingTxSeq:vector ETV
attr interpolationmode none
attr title "ping tx seq, vector"
vector 382 Scenario.node[52].app[1] pingTxSeq:vector ETV
attr interpolationmode none
attr title "ping tx seq, vector"
vector 383 Scenario.node[53].app[0] pingTxSeq:vector ETV
attr interpolationmode none
attr title "ping tx seq, vector"
vector 384 Scenario.node[53].app[1] pingTxSeq:vector ETV
attr interpolationmode none
attr title "ping tx seq, vector"
vector 385 Scenario.node[49].ipv4.ip packetDropNoRouteFound:vector(packetBytes) ETV
attr interpolationmode none
attr source packetDropReasonIsNoRouteFound(packetDropped)
attr title "packet drop: no route found, vector(packetBytes)"
vector 386 Scenario.node[50].ipv4.ip packetDropNoRouteFound:vector(packetBytes) ETV
attr interpolationmode none
attr source packetDropReasonIsNoRouteFound(packetDropped)
attr title "packet drop: no route found, vector(packetBytes)"
vector 387 Scenario.node[51].ipv4.ip packetDropNoRouteFound:vector(packetBytes) ETV
attr interpolationmode none
attr source packetDropReasonIsNoRouteFound(packetDropped)
attr title "packet drop: no route found, vector(packetBytes)"
vector 388 Scenario.node[52].ipv4.ip packetDropNoRouteFound:vector(packetBytes) ETV
attr interpolationmode none
attr source packetDropReasonIsNoRouteFound(packetDropped)
attr title "packet drop: no route found, vector(packetBytes)"
vector 389 Scenario.node[53].ipv4.ip packetDropNoRouteFound:vector(packetBytes) ETV
attr interpolationmode none
attr source packetDropReasonIsNoRouteFound(packetDropped)
attr title "packet drop: no route found, vector(packetBytes)"
vector 390 Scenario.node[54].wlan[0].radio radioMode:vector ETV
attr interpolationmode sample-hold
attr source radioModeChanged
attr title "Radio mode, vector"
vector 391 Scenario.node[54].wlan[0].radio radioChannel:vector ETV
attr interpolationmode sample-hold
attr source radioChannelChanged
attr title "Radio channel, vector"
vector 392 Scenario.node[54].wlan[0].radio receptionState:vector ETV
attr interpolationmode sample-hold
attr source receptionStateChanged
attr title "Radio reception state, vector"
vector 393 Scenario.node[54].wlan[0].mac.dcf.recoveryProcedure contentionWindowChanged:vector ETV
attr interpolationmode sample-hold
attr title "contention window, vector"
vector 394 Scenario.node[55].wlan[0].radio radioMode:vector ETV
attr interpolationmode sample-hold
attr source radioModeChanged
attr title "Radio mode, vector"
vector 395 Scenario.node[55].wlan[0].radio radioChannel:vector ETV
attr interpolationmode sample-hold
attr source radioChannelChanged
attr title "Radio channel, vector"
vector 396 Scenario.node[55].wlan[0].radio receptionState:vector ETV
attr interpolationmode sample-hold
attr source receptionStateChanged
attr title "Radio reception state, vector"
vector 397 Scenario.node[55].wlan[0].mac.dcf.recoveryProcedure contentionWindowChanged:vector ETV
attr interpolationmode sample-hold
attr title "contention window, vector"
vector 398 Scenario.node[56].wlan[0].radio radioMode:vector ETV
attr interpolationmode sample-hold
attr source radioModeChanged
attr title "Radio mode, vector"
vector 399 Scenario.node[56].wlan[0].radio radioChannel:vector ETV
attr interpolationmode sample-hold
attr source radioChannelChanged
attr title "Radio channel, vector"
vector 400 Scenario.node[56].wlan[0].radio receptionState:vector ETV
attr interpolationmode sample-hold
attr source receptionStateChanged
attr title "Radio reception state, vector"
vector 401 Scenario.node[56].wlan[0].mac.dcf.recoveryProcedure contentionWindowChanged:vector ETV
attr interpolationmode sample-hold
attr title "contention window, vector"
vector 402 Scenario.node[57].wlan[0].radio radioMode:vector ETV
attr interpolationmode sample-hold
attr source radioModeChanged
attr title "Radio mode, vector"
vector 403 Scenario.node[57].wlan[0].radio radioChannel:vector ETV
attr interpolationmode sample-hold
attr source radioChannelChanged
attr title "Radio channel, vector"
vector 404 Scenario.node[57].wlan[0].radio receptionState:vector ETV
attr interpolationmode sample-hold
attr source receptionStateChanged
attr title "Radio reception state, vector"
vector 405 Scenario.node[57].wlan[0].mac.dcf.recoveryProcedure contentionWindowChanged:vector ETV
attr interpolationmode sample-hold
attr title "contention window, vector"
vector 406 Scenario.node[58].wlan[0].radio radioMode:vector ETV
attr interpolationmode sample-hold
attr source radioModeChanged
attr title "Radio mode, vector"
vector 407 Scenario.node[58].wlan[0].radio radioChannel:vector ETV
attr interpolationmode sample-hold
attr source radioChannelChanged
attr title "Radio channel, vector"
vector 408 Scenario.node[58].wlan[0].radio receptionState:vector ETV
attr interpolationmode sample-hold
attr source receptionStateChanged
attr title "Radio reception state, vector"
vector 409 Scenario.node[58].wlan[0].mac.dcf.recoveryProcedure contentionWindowChanged:vector ETV
attr interpolationmode sample-hold
attr title "contention window, vector"
vector 410 Scenario.node[59].wlan[0].radio radioMode:vector ETV
attr interpolationmode sample-hold
attr source radioModeChanged
attr title "Radio mode, vector"
vector 411 Scenario.node[59].wlan[0].radio radioChannel:vector ETV
attr interpolationmode sample-hold
attr source radioChannelChanged
attr title "Radio channel, vector"
vector 412 Scenario.node[59].wlan[0].radio receptionState:vector ETV
attr interpolationmode sample-hold
attr source receptionStateChanged
attr title "Radio reception state, vector"
vector 413 Scenario.node[59].wlan[0].mac.dcf.recoveryProcedure contentionWindowChanged:vector ETV
attr interpolationmode sample-hold
attr title "contention window, vector"
vector 414 Scenario.node[54].app[0] pingTxSeq:vector ETV
attr interpolationmode none
attr title "ping tx seq, vector"
vector 415 Scenario.node[54].app[1] pingTxSeq:vector ETV
attr interpolationmode none
attr title "ping tx seq, vector"
vector 416 Scenario.node[55].app[0] pingTxSeq:vector ETV
attr interpolationmode none
attr title "ping tx seq, vector"
vector 417 Scenario.node[55].app[1] pingTxSeq:vector ETV
attr interpolationmode none
attr title "ping tx seq, vector"
vector 418 Scenario.node[56].app[0] pingTxSeq:vector ETV
attr interpolationmode none
attr title "ping tx seq, vector"
vector 419 Scenario.node[56].app[1] pingTxSeq:vector ETV
attr interpolationmode none
attr title "ping tx seq, vector"
vector 420 Scenario.node[57].app[0] pingTxSeq:vector ETV
attr interpolationmode none
attr title "ping tx seq, vector"
vector 421 Scenario.node[57].app[1] pingTxSeq:vector ETV
attr interpolationmode none
attr title "ping tx seq, vector"
vector 422 Scenario.node[58].app[0] pingTxSeq:vector ETV
attr interpolationmode none
attr title "ping tx seq, vector"
vector 423 Scenario.node[58].app[1] pingTxSeq:vector ETV
attr interpolationmode none
attr title "ping tx seq, vector"
vector 424 Scenario.node[59].app[0] pingTxSeq:vector ETV
attr interpolationmode none
attr title "ping tx seq, vector"
vector 425 Scenario.node[59].app[1] pingTxSeq:vector ETV
attr interpolationmode none
attr title "ping tx seq, vector"
vector 426 Scenario.node[54].ipv4.ip packetDropNoRouteFound:vector(packetBytes) ETV
attr interpolationmode none
attr source packetDropReasonIsNoRouteFound(packetDropped)
attr title "packet drop: no route found, vector(packetBytes)"
vector 427 Scenario.node[55].ipv4.ip packetDropNoRouteFound:vector(packetBytes) ETV
attr interpolationmode none
attr source packetDropReasonIsNoRouteFound(packetDropped)
attr title "packet drop: no route found, vector(packetBytes)"
vector 428 Scenario.node[56].ipv4.ip packetDropNoRouteFound:vector(packetBytes) ETV
attr interpolationmode none
attr source packetDropReasonIsNoRouteFound(packetDropped)
attr title "packet drop: no route found, vector(packetBytes)"
vector 429 Scenario.node[57].ipv4.ip packetDropNoRouteFound:vector(packetBytes) ETV
attr interpolationmode none
attr source packetDropReasonIsNoRouteFound(packetDropped)
attr title "packet drop: no route found, vector(packetBytes)"
vector 430 Scenario.node[58].ipv4.ip packetDropNoRouteFound:vector(packetBytes) ETV
attr interpolationmode none
attr source packetDropReasonIsNoRouteFound(packetDropped)
attr title "packet drop: no route found, vector(packetBytes)"
vector 431 Scenario.node[59].ipv4.ip packetDropNoRouteFound:vector(packetBytes) ETV
attr interpolationmode none
attr source packetDropReasonIsNoRouteFound(packetDropped)
attr title "packet drop: no route found, vector(packetBytes)"
vector 432 Scenario.node[60].wlan[0].radio radioMode:vector ETV
attr interpolationmode sample-hold
attr source radioModeChanged
attr title "Radio mode, vector"
vector 433 Scenario.node[60].wlan[0].radio radioChannel:vector ETV
attr interpolationmode sample-hold
attr source radioChannelChanged
attr title "Radio channel, vector"
vector 434 Scenario.node[60].wlan[0].radio receptionState:vector ETV
attr interpolationmode sample-hold
attr source receptionStateChanged
attr title "Radio reception state, vector"
vector 435 Scenario.node[60].wlan[0].mac.dcf.recoveryProcedure contentionWindowChanged:vector ETV
attr interpolationmode sample-hold
attr title "contention window, vector"
vector 436 Scenario.node[61].wlan[0].radio radioMode:vector ETV
attr interpolationmode sample-hold
attr source radioModeChanged
attr title "Radio mode, vector"
vector 437 Scenario.node[61].wlan[0].radio radioChannel:vector ETV
attr interpolationmode sample-hold
attr source radioChannelChanged
attr title "Radio channel, vector"
vector 438 Scenario.node[61].wlan[0].radio receptionState:vector ETV
attr interpolationmode sample-hold
attr source receptionStateChanged
attr title "Radio reception state, vector"
vector 439 Scenario.node[61].wlan[0].mac.dcf.recoveryProcedure contentionWindowChanged:vector ETV
attr interpolationmode sample-hold
attr title "contention window, vector"
vector 440 Scenario.node[62].wlan[0].radio radioMode:vector ETV
attr interpolationmode sample-hold
attr source radioModeChanged
attr title "Radio mode, vector"
vector 441 Scenario.node[62].wlan[0].radio radioChannel:vector ETV
attr interpolationmode sample-hold
attr source radioChannelChanged
attr title "Radio channel, vector"
vector 442 Scenario.node[62].wlan[0].radio receptionState:vector ETV
attr interpolationmode sample-hold
attr source receptionStateChanged
attr title "Radio reception state, vector"
vector 443 Scenario.node[62].wlan[0].mac.dcf.recoveryProcedure contentionWindowChanged:vector ETV
attr interpolationmode sample-hold
attr title "contention window, vector"
vector 444 Scenario.node[63].wlan[0].radio radioMode:vector ETV
attr interpolationmode sample-hold
attr source radioModeChanged
attr title "Radio mode, vector"
vector 445 Scenario.node[63].wlan[0].radio radioChannel:vector ETV
attr interpolationmode sample-hold
attr source radioChannelChanged
attr title "Radio channel, vector"
vector 446 Scenario.node[63].wlan[0].radio receptionState:vector ETV
attr interpolationmode sample-hold
attr source receptionStateChanged
attr title "Radio reception state, vector"
vector 447 Scenario.node[63].wlan[0].mac.dcf.recoveryProcedure contentionWindowChanged:vector ETV
attr interpolationmode sample-hold
attr title "contention window, vector"
vector 448 Scenario.node[64].wlan[0].radio radioMode:vector ETV
attr interpolationmode sample-hold
attr source radioModeChanged
attr title "Radio mode, vector"
vector 449 Scenario.node[64].wlan[0].radio radioChannel:vector ETV
attr interpolationmode sample-hold
attr source radioChannelChanged
attr title "Radio channel, vector"
vector 450 Scenario.node[64].wlan[0].radio receptionState:vector ETV
attr interpolationmode sample-hold
attr source receptionStateChanged
attr title "Radio reception state, vector"
vector 451 Scenario.node[64].wlan[0].mac.dcf.recoveryProcedure contentionWindowChanged:vector ETV
attr interpolationmode sample-hold
attr title "contention window, vector"
vector 452 Scenario.node[65].wlan[0].radio radioMode:vector ETV
attr interpolationmode sample-hold
attr source radioModeChanged
attr title "Radio mode, vector"
vector 453 Scenario.node[65].wlan[0].radio radioChannel:vector ETV
attr interpolationmode sample-hold
attr source radioChannelChanged
attr title "Radio channel, vector"
vector 454 Scenario.node[65].wlan[0].radio receptionState:vector ETV
attr interpolationmode sample-hold
attr source receptionStateChanged
attr title "Radio reception state, vector"
vector 455 Scenario.node[65].wlan[0].mac.dcf.recoveryProcedure contentionWindowChanged:vector ETV
attr interpolationmode sample-hold
attr title "contention window, vector"
vector 456 Scenario.node[66].wlan[0].radio radioMode:vector ETV
attr interpolationmode sample-hold
attr source radioModeChanged
attr title "Radio mode, vector"
vector 457 Scenario.node[66].wlan[0].radio radioChannel:vector ETV
attr interpolationmode sample-hold
attr source radioChannelChanged
attr title "Radio channel, vector"
vector 458 Scenario.node[66].wlan[0].radio receptionState:vector ETV
attr interpolationmode sample-hold
attr source receptionStateChanged
attr title "Radio reception state, vector"
vector 459 Scenario.node[66].wlan[0].mac.dcf.recoveryProcedure contentionWindowChanged:vector ETV
attr interpolationmode sample-hold
attr title "contention window, vector"
vector 460 Scenario.node[67].wlan[0].radio radioMode:vector ETV
attr interpolationmode sample-hold
attr source radioModeChanged
attr title "Radio mode, vector"
vector 461 Scenario.node[67].wlan[0].radio radioChannel:vector ETV
attr interpolationmode sample-hold
attr source radioChannelChanged
attr title "Radio channel, vector"
vector 462 Scenario.node[67].wlan[0].radio receptionState:vector ETV
attr interpolationmode sample-hold
attr source receptionStateChanged
attr title "Radio reception state, vector"
vector 463 Scenario.node[67].wlan[0].mac.dcf.recoveryProcedure contentionWindowChanged:vector ETV
attr interpolationmode sample-hold
attr title "contention window, vector"
vector 464 Scenario.node[68].wlan[0].radio radioMode:vector ETV
attr interpolationmode sample-hold
attr source radioModeChanged
attr title "Radio mode, vector"
vector 465 Scenario.node[68].wlan[0].radio radioChannel:vector ETV
attr interpolationmode sample-hold
attr source radioChannelChanged
attr title "Radio channel, vector"
vector 466 Scenario.node[68].wlan[0].radio receptionState:vector ETV
attr interpolationmode sample-hold
attr source receptionStateChanged
attr title "Radio reception state, vector"
vector 467 Scenario.node[68].wlan[0].mac.dcf.recoveryProcedure contentionWindowChanged:vector ETV
attr interpolationmode sample-hold
attr title "contention window, vector"
vector 468 Scenario.node[60].app[0] pingTxSeq:vector ETV
attr interpolationmode none
attr title "ping tx seq, vector"
vector 469 Scenario.node[60].app[1] pingTxSeq:vector ETV
attr interpolationmode none
[...]
305	19102508 26992 1359280 2218951 65.84 112.72 1174 1546 1546 1815004 2805996184
322	19129500 283714 1359332 2219679 65.842 112.763 13408 1 2 20112 33520
324	19413214 283714 1359332 2219679 65.842 112.763 13408 0 1 6704 6704
334	19696928 13234 1359998 2219552 65.88 112.76 587 736 1322 604023 638394785
335	19710162 13234 1359999 2219553 65.88 112.76 587 736 1322 604023 638394785
342	19723396 13234 1360000 2219554 65.88 112.76 587 736 1322 604023 638394785
343	19736630 13234 1360001 2219555 65.88 112.76 587 736 1322 604023 638394785
348	19749864 26996 1360066 2219623 65.88 112.76 1174 1546 1546 1815004 2805996184
352	19776860 26996 1360068 2219625 65.88 112.76 1174 1546 1546 1815004 2805996184
355	19803856 138238 1359308 1800696 65.841 88.997 6618 1 2 9927 16545
357	19942094 138238 1359308 1800696 65.841 88.997 6618 0 1 3309 3309
363	20080332 217082 1579753 2219663 77.006 112.762 10218 1 2 15327 25545
365	20297414 217082 1579753 2219663 77.006 112.762 10218 0 1 5109 5109
375	20514496 13219 1359196 2218882 65.84 112.72 587 723 1309 596392 622789390
376	20527715 13219 1359197 2218883 65.84 112.72 587 723 1309 596392 622789390
379	20540934 13219 1359200 2218884 65.84 112.72 587 723 1309 596392 622789390
380	20554153 13219 1359201 2218885 65.84 112.72 587 723 1309 596392 622789390
383	20567372 13219 1359204 2218886 65.84 112.72 587 723 1309 596392 622789390
384	20580591 13219 1359205 2218887 65.84 112.72 587 723 1309 596392 622789390
385	20593810 26992 1359282 2218953 65.84 112.72 1174 1546 1546 1815004 2805996184
387	20620802 26992 1359286 2218955 65.84 112.72 1174 1546 1546 1815004 2805996184
389	20647794 26992 1359290 2218957 65.84 112.72 1174 1546 1546 1815004 2805996184
390	20674786 223056 1560219 2219639 76.004 112.761 10504 1 2 15756 26260
392	20897842 223056 1560219 2219639 76.004 112.761 10504 0 1 5252 5252
394	21120898 174040 1359224 1909568 65.84 94.995 8332 1 2 12498 20830
396	21294938 174040 1359224 1909568 65.84 94.995 8332 0 1 4166 4166
410	21468978 181280 1691976 2219647 83.004 112.761 8504 1 2 12756 21260
412	21650258 181280 1691976 2219647 83.004 112.761 8504 0 1 4252 4252
414	21831538 13209 1360006 2219556 65.88 112.76 587 711 1297 589348 608560510
415	21844747 13209 1360007 2219557 65.88 112.76 587 711 1297 589348 608560510
416	21857956 13209 1360008 2219558 65.88 112.76 587 711 1297 589348 608560510
417	21871165 13209 1360009 2219559 65.88 112.76 587 711 1297 589348 608560510
418	21884374 13209 1360010 2219560 65.88 112.76 587 711 1297 589348 608560510
419	21897583 13209 1360011 2219561 65.88 112.76 587 711 1297 589348 608560510
420	21910792 13209 1360012 2219562 65.88 112.76 587 711 1297 589348 608560510
421	21924001 13209 1360013 2219563 65.88 112.76 587 711 1297 589348 608560510
424	21937210 13209 1360016 2219564 65.88 112.76 587 711 1297 589348 608560510
425	21950419 13209 1360017 2219565 65.88 112.76 587 711 1297 589348 608560510
426	21963628 26996 1360074 2219627 65.88 112.76 1174 1546 1546 1815004 2805996184
427	21990624 26996 1360076 2219629 65.88 112.76 1174 1546 1546 1815004 2805996184
428	22017620 26996 1360078 2219631 65.88 112.76 1174 1546 1546 1815004 2805996184
429	22044616 26996 1360080 2219633 65.88 112.76 1174 1546 1546 1815004 2805996184
431	22071612 26996 1360084 2219635 65.88 112.76 1174 1546 1546 1815004 2805996184
440	22098608 205174 1618047 2219716 79.006 112.767 9648 1 2 14472 24120
442	22303782 205174 1618047 2219716 79.006 112.767 9648 0 1 4824 4824
452	22508956 283754 1359142 2219720 65.839 112.767 13410 1 2 20115 33525
454	22792710 283754 1359142 2219720 65.839 112.767 13410 0 1 6705 6705
456	23076464 283754 1359144 2219722 65.839 112.767 13410 1 2 20115 33525
458	23360218 283754 1359144 2219722 65.839 112.767 13410 0 1 6705 6705
460	23643972 283754 1359146 2219724 65.839 112.767 13410 1 2 20115 33525
462	23927726 283754 1359146 2219724 65.839 112.767 13410 0 1 6705 6705
468	24211480 13194 1359206 2218888 65.84 112.72 587 698 1284 581717 593336665
469	24224674 13194 1359207 2218889 65.84 112.72 587 698 1284 581717 593336665
470	24237868 13194 1359208 2218890 65.84 112.72 587 698 1284 581717 593336665
471	24251062 13194 1359209 2218891 65.84 112.72 587 698 1284 581717 593336665
472	24264256 13194 1359210 2218892 65.84 112.72 587 698 1284 581717 593336665
473	24277450 13194 1359211 2218893 65.84 112.72 587 698 1284 581717 593336665
474	24290644 13194 1359212 2218894 65.84 112.72 587 698 1284 581717 593336665
475	24303838 13194 1359213 2218895 65.84 112.72 587 698 1284 581717 593336665
478	24317032 13194 1359216 2218896 65.84 112.72 587 698 1284 581717 593336665
479	24330226 13194 1359217 2218897 65.84 112.72 587 698 1284 581717 593336665
480	24343420 13194 1359218 2218898 65.84 112.72 587 698 1284 581717 593336665
481	24356614 13194 1359219 2218899 65.84 112.72 587 698 1284 581717 593336665
482	24369808 13194 1359220 2218900 65.84 112.72 587 698 1284 581717 593336665
483	24383002 13194 1359221 2218901 65.84 112.72 587 698 1284 581717 593336665
486	24396196 26992 1359292 2218959 65.84 112.72 1174 1546 1546 1815004 2805996184
487	24423188 26992 1359294 2218961 65.84 112.72 1174 1546 1546 1815004 2805996184
488	24450180 26992 1359296 2218963 65.84 112.72 1174 1546 1546 1815004 2805996184
489	24477172 26992 1359298 2218965 65.84 112.72 1174 1546 1546 1815004 2805996184
491	24504164 26992 1359302 2218967 65.84 112.72 1174 1546 1546 1815004 2805996184
492	24531156 26992 1359304 2218969 65.84 112.72 1174 1546 1546 1815004 2805996184
493	24558148 26992 1359306 2218971 65.84 112.72 1174 1546 1546 1815004 2805996184
499	24585140 13184 1360018 2219566 65.88 112.76 587 686 1272 574673 579459985
500	24598324 13184 1360019 2219567 65.88 112.76 587 686 1272 574673 579459985
501	24611508 26996 1360086 2219637 65.88 112.76 1174 1546 1546 1815004 2805996184
262	24638504 2468 2220990 2290955 112.84 116.92 104 1546 1546 160784 248572064
254	24640972 1234 2220941 2290894 112.84 116.92 52 1348 1399 71422 98109830
255	24642206 1234 2220942 2290895 112.84 116.92 52 1348 1399 71422 98109830
60	24643440 3500 2220974 2324573 112.84 118.92 154 1546 1546 238084 368077864
52	24646940 1750 2220925 2324504 112.84 118.92 77 1398 1474 110572 158819430
53	24648690 1750 2220926 2324505 112.84 118.92 77 1398 1474 110572 158819430
113	24650440 4272 2220274 2341057 112.8 119.92 180 1546 1546 278280 430220880
101	24654712 2136 2220214 2340988 112.8 119.92 90 1385 1474 128655 183973065
102	24656848 2136 2220215 2340989 112.8 119.92 90 1385 1474 128655 183973065
8	24658984 11584 2219874 2342248 112.776885314882 119.996885314882 362 5638 5999 2106297 12259442225
9	24670568 21720 2219876 2342255 112.776885314882 119.996885314882 724 84 84 60816 5108544
10	24692288 22444 2219876 2342255 112.776885314882 119.996885314882 724 84 84 60816 5108544
11	24714732 11946 2219883 2342257 112.776885314882 119.996885314882 362 5638 5999 2106297 12259442225
16	24726678 43190 2219767 2342387 112.769 120 2068 1 2 3102 5170
18	24769868 43190 2219767 2342387 112.769 120 2068 0 1 1034 1034
28	24813058 43190 2219771 2342391 112.769 120 2068 1 2 3102 5170
30	24856248 43190 2219771 2342391 112.769 120 2068 0 1 1034 1034
40	24899438 2044 2220917 2341668 112.84 119.96 90 1398 1487 129825 187333305
41	24901482 2044 2220918 2341669 112.84 119.96 90 1398 1487 129825 187333305
42	24903526 2044 2220919 2341670 112.84 119.96 90 1398 1487 129825 187333305
43	24905570 2044 2220920 2341671 112.84 119.96 90 1398 1487 129825 187333305
46	24907614 2044 2220921 2341672 112.84 119.96 90 1398 1487 129825 187333305
47	24909658 2044 2220922 2341673 112.84 119.96 90 1398 1487 129825 187333305
48	24911702 2044 2220923 2341674 112.84 119.96 90 1398 1487 129825 187333305
49	24913746 2044 2220924 2341675 112.84 119.96 90 1398 1487 129825 187333305
54	24915790 4088 2220966 2341719 112.84 119.96 180 1546 1546 278280 430220880
55	24919878 4088 2220968 2341721 112.84 119.96 180 1546 1546 278280 430220880
57	24923966 4088 2220970 2341723 112.84 119.96 180 1546 1546 278280 430220880
58	24928054 4088 2220972 2341725 112.84 119.96 180 1546 1546 278280 430220880
69	24932142 29874 2258059 2342314 115.001 119.999 1430 1 2 2145 3575
71	24962016 29874 2258059 2342314 115.001 119.999 1430 0 1 715 715
93	24991890 2066 2220208 2342326 112.8 120 91 1385 1475 130130 186148690
94	24993956 2066 2220209 2342327 112.8 120 91 1385 1475 130130 186148690
95	24996022 2066 2220210 2342328 112.8 120 91 1385 1475 130130 186148690
96	24998088 2066 2220211 2342329 112.8 120 91 1385 1475 130130 186148690
97	25000154 2066 2220212 2342330 112.8 120 91 1385 1475 130130 186148690
98	25002220 2066 2220213 2342331 112.8 120 91 1385 1475 130130 186148690
103	25004286 2157 2220216 2342332 112.8 120 91 1385 1475 130130 186148690
104	25006443 2157 2220217 2342333 112.8 120 91 1385 1475 130130 186148690
105	25008600 2157 2220218 2342334 112.8 120 91 1385 1475 130130 186148690
106	25010757 2157 2220219 2342335 112.8 120 91 1385 1475 130130 186148690
109	25012914 4314 2220268 2342393 112.8 120 182 1546 1546 281372 435001112
110	25017228 4314 2220270 2342395 112.8 120 182 1546 1546 281372 435001112
111	25021542 4314 2220272 2342397 112.8 120 182 1546 1546 281372 435001112
114	25025856 4314 2220276 2342399 112.8 120 182 1546 1546 281372 435001112
115	25030170 4314 2220278 2342401 112.8 120 182 1546 1546 281372 435001112
121	25034484 45220 2219826 2342290 112.774 119.998 2066 1 2 3099 5165
123	25079704 45220 2219826 2342290 112.774 119.998 2066 0 1 1033 1033
125	25124924 45242 2219730 2342292 112.767 119.998 2067 1 2 3101 5169
127	25170166 45242 2219730 2342292 112.767 119.998 2067 0 1 1034 1034
145	25215408 2134 2220927 2341676 112.84 119.96 90 1373 1462 127575 180898305
146	25217542 2134 2220928 2341677 112.84 119.96 90 1373 1462 127575 180898305
147	25219676 2134 2220929 2341678 112.84 119.96 90 1373 1462 127575 180898305
148	25221810 2134 2220930 2341679 112.84 119.96 90 1373 1462 127575 180898305
149	25223944 2134 2220931 2341680 112.84 119.96 90 1373 1462 127575 180898305
150	25226078 2134 2220932 2341681 112.84 119.96 90 1373 1462 127575 180898305
151	25228212 2134 2220933 2341682 112.84 119.96 90 1373 1462 127575 180898305
152	25230346 2134 2220934 2341683 112.84 119.96 90 1373 1462 127575 180898305
155	25232480 2134 2220935 2341684 112.84 119.96 90 1373 1462 127575 180898305
156	25234614 2134 2220936 2341685 112.84 119.96 90 1373 1462 127575 180898305
157	25236748 2134 2220937 2341686 112.84 119.96 90 1373 1462 127575 180898305
158	25238882 2134 2220938 2341687 112.84 119.96 90 1373 1462 127575 180898305
159	25241016 4268 2220976 2341727 112.84 119.96 180 1546 1546 278280 430220880
160	25245284 4268 2220978 2341729 112.84 119.96 180 1546 1546 278280 430220880
161	25249552 4268 2220980 2341731 112.84 119.96 180 1546 1546 278280 430220880
162	25253820 4268 2220982 2341733 112.84 119.96 180 1546 1546 278280 430220880
164	25258088 4268 2220984 2341735 112.84 119.96 180 1546 1546 278280 430220880
165	25262356 4268 2220986 2341737 112.84 119.96 180 1546 1546 278280 430220880
166	25266624 45220 2219798 2342262 112.773 119.997 2066 1 2 3099 5165
168	25311844 45220 2219798 2342262 112.773 119.997 2066 0 1 1033 1033
174	25357064 45220 2219802 2342266 112.773 119.997 2066 1 2 3099 5165
176	25402284 45220 2219802 2342266 112.773 119.997 2066 0 1 1033 1033
198	25447504 2157 2220220 2342336 112.8 120 91 1360 1450 127855 179699065
199	25449661 2157 2220221 2342337 112.8 120 91 1360 1450 127855 179699065
200	25451818 2157 2220222 2342338 112.8 120 91 1360 1450 127855 179699065
201	25453975 2157 2220223 2342339 112.8 120 91 1360 1450 127855 179699065
202	25456132 2157 2220224 2342340 112.8 120 91 1360 1450 127855 179699065
203	25458289 2157 2220225 2342341 112.8 120 91 1360 1450 127855 179699065
204	25460446 2157 2220226 2342342 112.8 120 91 1360 1450 127855 179699065
205	25462603 2157 2220227 2342343 112.8 120 91 1360 1450 127855 179699065
206	25464760 2157 2220228 2342344 112.8 120 91 1360 1450 127855 179699065
207	25466917 2157 2220229 2342345 112.8 120 91 1360 1450 127855 179699065
208	25469074 2157 2220230 2342346 112.8 120 91 1360 1450 127855 179699065
209	25471231 2157 2220231 2342347 112.8 120 91 1360 1450 127855 179699065
214	25473388 4314 2220280 2342403 112.8 120 182 1546 1546 281372 435001112
215	25477702 4314 2220282 2342405 112.8 120 182 1546 1546 281372 435001112
216	25482016 4314 2220284 2342407 112.8 120 182 1546 1546 281372 435001112
217	25486330 4314 2220286 2342409 112.8 120 182 1546 1546 281372 435001112
218	25490644 4314 2220288 2342411 112.8 120 182 1546 1546 281372 435001112
219	25494958 4314 2220290 2342413 112.8 120 182 1546 1546 281372 435001112
226	25499272 45220 2219790 2342245 112.772 119.996 2066 1 2 3099 5165
228	25544492 45220 2219790 2342245 112.772 119.996 2066 0 1 1033 1033
242	25589712 20226 2219794 2275063 112.772 115.999 924 1 2 1386 2310
244	25609938 20226 2219794 2275063 112.772 115.999 924 0 1 462 462
248	25630164 2134 2220939 2341688 112.84 119.96 90 1348 1437 125325 174575805
249	25632298 2134 2220940 2341689 112.84 119.96 90 1348 1437 125325 174575805
256	25634432 2134 2220943 2341690 112.84 119.96 90 1348 1437 125325 174575805
257	25636566 2134 2220944 2341691 112.84 119.96 90 1348 1437 125325 174575805
259	25638700 4268 2220988 2341739 112.84 119.96 180 1546 1546 278280 430220880
263	25642968 4268 2220992 2341741 112.84 119.96 180 1546 1546 278280 430220880
280	25647236 45222 2219786 2342241 112.771 119.995 2066 1 2 3099 5165
282	25692458 45222 2219786 2342241 112.771 119.995 2066 0 1 1033 1033
290	25737680 2157 2220232 2342348 112.8 120 91 1335 1425 125580 173363190
291	25739837 2157 2220233 2342349 112.8 120 91 1335 1425 125580 173363190
292	25741994 2157 2220234 2342350 112.8 120 91 1335 1425 125580 173363190
293	25744151 2157 2220235 2342351 112.8 120 91 1335 1425 125580 173363190
294	25746308 2157 2220236 2342352 112.8 120 91 1335 1425 125580 173363190
295	25748465 2157 2220237 2342353 112.8 120 91 1335 1425 125580 173363190
296	25750622 2157 2220238 2342354 112.8 120 91 1335 1425 125580 173363190
297	25752779 2157 2220239 2342355 112.8 120 91 1335 1425 125580 173363190
298	25754936 2157 2220240 2342356 112.8 120 91 1335 1425 125580 173363190
299	25757093 2157 2220241 2342357 112.8 120 91 1335 1425 125580 173363190
301	25759250 4314 2220292 2342415 112.8 120 182 1546 1546 281372 435001112
302	25763564 4314 2220294 2342417 112.8 120 182 1546 1546 281372 435001112
303	25767878 4314 2220296 2342419 112.8 120 182 1546 1546 281372 435001112
304	25772192 4314 2220298 2342421 112.8 120 182 1546 1546 281372 435001112
305	25776506 4314 2220300 2342423 112.8 120 182 1546 1546 281372 435001112
322	25780820 45220 2219777 2342232 112.77 119.994 2066 1 2 3099 5165
324	25826040 45220 2219777 2342232 112.77 119.994 2066 0 1 1033 1033
334	25871260 2134 2220945 2341692 112.84 119.96 90 1323 1412 123075 168365805
335	25873394 2134 2220946 2341693 112.84 119.96 90 1323 1412 123075 168365805
342	25875528 2134 2220947 2341694 112.84 119.96 90 1323 1412 123075 168365805
343	25877662 2134 2220948 2341695 112.84 119.96 90 1323 1412 123075 168365805
348	25879796 4268 2220994 2341743 112.84 119.96 180 1546 1546 278280 430220880
352	25884064 4268 2220996 2341745 112.84 119.96 180 1546 1546 278280 430220880
363	25888332 45258 2219761 2342381 112.769 120 2068 1 2 3102 5170
365	25933590 45258 2219761 2342381 112.769 120 2068 0 1 1034 1034
375	25978848 2157 2220242 2342358 112.8 120 91 1310 1400 123305 167141065
376	25981005 2157 2220243 2342359 112.8 120 91 1310 1400 123305 167141065
379	25983162 2157 2220244 2342360 112.8 120 91 1310 1400 123305 167141065
380	25985319 2157 2220245 2342361 112.8 120 91 1310 1400 123305 167141065
383	25987476 2157 2220246 2342362 112.8 120 91 1310 1400 123305 167141065
384	25989633 2157 2220247 2342363 112.8 120 91 1310 1400 123305 167141065
385	25991790 4314 2220302 2342425 112.8 120 182 1546 1546 281372 435001112
387	25996104 4314 2220304 2342427 112.8 120 182 1546 1546 281372 435001112
389	26000418 4314 2220306 2342429 112.8 120 182 1546 1546 281372 435001112
390	26004732 45266 2219737 2342300 112.768 119.999 2068 1 2 3102 5170
392	26049998 45266 2219737 2342300 112.768 119.999 2068 0 1 1034 1034
410	26095264 45266 2219745 2342308 112.768 119.999 2068 1 2 3102 5170
412	26140530 45266 2219745 2342308 112.768 119.999 2068 0 1 1034 1034
414	26185796 2134 2220949 2341696 112.84 119.96 90 1298 1387 120825 162268305
415	26187930 2134 2220950 2341697 112.84 119.96 90 1298 1387 120825 162268305
416	26190064 2134 2220951 2341698 112.84 119.96 90 1298 1387 120825 162268305
417	26192198 2134 2220952 2341699 112.84 119.96 90 1298 1387 120825 162268305
418	26194332 2134 2220953 2341700 112.84 119.96 90 1298 1387 120825 162268305
419	26196466 2134 2220954 2341701 112.84 119.96 90 1298 1387 120825 162268305
420	26198600 2134 2220955 2341702 112.84 119.96 90 1298 1387 120825 162268305
421	26200734 2134 2220956 2341703 112.84 119.96 90 1298 1387 120825 162268305
424	26202868 2134 2220957 2341704 112.84 119.96 90 1298 1387 120825 162268305
425	26205002 2134 2220958 2341705 112.84 119.96 90 1298 1387 120825 162268305
426	26207136 4268 2220998 2341747 112.84 119.96 180 1546 1546 278280 430220880
427	26211404 4268 2221000 2341749 112.84 119.96 180 1546 1546 278280 430220880
428	26215672 4268 2221002 2341751 112.84 119.96 180 1546 1546 278280 430220880
429	26219940 4268 2221004 2341753 112.84 119.96 180 1546 1546 278280 430220880
431	26224208 4268 2221006 2341755 112.84 119.96 180 1546 1546 278280 430220880
436	26228476 43776 2223800 2342276 113.005 119.998 2000 1 2 3000 5000
438	26272252 43776 2223800 2342276 113.005 119.998 2000 0 1 1000 1000
440	26316028 45220 2219814 2342278 112.774 119.998 2066 1 2 3099 5165
442	26361248 45220 2219814 2342278 112.774 119.998 2066 0 1 1033 1033
452	26406468 45220 2219818 2342282 112.774 119.998 2066 1 2 3099 5165
454	26451688 45220 2219818 2342282 112.774 119.998 2066 0 1 1033 1033
456	26496908 45220 2219820 2342284 112.774 119.998 2066 1 2 3099 5165
458	26542128 45220 2219820 2342284 112.774 119.998 2066 0 1 1033 1033
460	26587348 45220 2219822 2342286 112.774 119.998 2066 1 2 3099 5165
462	26632568 45220 2219822 2342286 112.774 119.998 2066 0 1 1033 1033
468	26677788 2157 2220248 2342364 112.8 120 91 1285 1375 121030 161032690
469	26679945 2157 2220249 2342365 112.8 120 91 1285 1375 121030 161032690
470	26682102 2157 2220250 2342366 112.8 120 91 1285 1375 121030 161032690
471	26684259 2157 2220251 2342367 112.8 120 91 1285 1375 121030 161032690
472	26686416 2157 2220252 2342368 112.8 120 91 1285 1375 121030 161032690
473	26688573 2157 2220253 2342369 112.8 120 91 1285 1375 121030 161032690
474	26690730 2157 2220254 2342370 112.8 120 91 1285 1375 121030 161032690
475	26692887 2157 2220255 2342371 112.8 120 91 1285 1375 121030 161032690
478	26695044 2157 2220256 2342372 112.8 120 91 1285 1375 121030 161032690
479	26697201 2157 2220257 2342373 112.8 120 91 1285 1375 121030 161032690
480	26699358 2157 2220258 2342374 112.8 120 91 1285 1375 121030 161032690
481	26701515 2157 2220259 2342375 112.8 120 91 1285 1375 121030 161032690
482	26703672 2157 2220260 2342376 112.8 120 91 1285 1375 121030 161032690
483	26705829 2157 2220261 2342377 112.8 120 91 1285 1375 121030 161032690
486	26707986 4314 2220308 2342431 112.8 120 182 1546 1546 281372 435001112
487	26712300 4314 2220310 2342433 112.8 120 182 1546 1546 281372 435001112
488	26716614 4314 2220312 2342435 112.8 120 182 1546 1546 281372 435001112
489	26720928 4314 2220314 2342437 112.8 120 182 1546 1546 281372 435001112
491	26725242 4314 2220316 2342439 112.8 120 182 1546 1546 281372 435001112
492	26729556 4314 2220318 2342441 112.8 120 182 1546 1546 281372 435001112
493	26733870 4314 2220320 2342443 112.8 120 182 1546 1546 281372 435001112
499	26738184 2134 2220959 2341706 112.84 119.96 90 1273 1362 118575 156283305
500	26740318 2134 2220960 2341707 112.84 119.96 90 1273 1362 118575 156283305
501	26742452 4268 2221008 2341757 112.84 119.96 180 1546 1546 278280 430220880

