version 2
run Streaming1-0-20241026-03:25:44-41622
attr configname Streaming1
attr datetime 20241026-03:25:44
attr experiment Streaming1
attr inifile omnetpp-streaming.ini
attr iterationvars ""
attr iterationvarsf ""
attr measurement ""
attr network Lan80211
attr processid 41622
attr repetition 0
attr replication #0
attr resultdir results
attr runnumber 0
attr seedset 0
param *.numHosts 3
param **.constraintAreaMinX 0m
param **.constraintAreaMinY 0m
param **.constraintAreaMinZ 0m
param **.constraintAreaMaxX 600m
param **.constraintAreaMaxY 400m
param **.constraintAreaMaxZ 0m
param **.ap.wlan[*].address "\"10:00:00:00:00:00\""
param **.host*.**.mgmt.accessPointAddress "\"10:00:00:00:00:00\""
param **.host*.mobility.typename "\"MassMobility\""
param **.host*.mobility.changeInterval "truncnormal(2s, 0.5s)"
param **.host*.mobility.angleDelta "normal(0deg, 30deg)"
param **.host*.mobility.speed "truncnormal(20mps, 8mps)"
param **.host*.mobility.updateInterval 100ms
param **.numApps 1
param **.host[0].app[*].typename "\"UdpVideoStreamServer\""
param **.host[0].app[*].videoSize 10MiB
param **.host[0].app[*].localPort 3088
param **.host[0].app[*].sendInterval 10ms
param **.host[0].app[*].packetLen 1000B
param **.host*.app[*].typename "\"UdpVideoStreamClient\""
param **.host*.app[*].serverAddress "\"host[0]\""
param **.host*.app[*].localPort 9999
param **.host*.app[*].serverPort 3088
param **.host*.app[*].startTime 0s
param **.wlan*.bitrate 2Mbps
param **.wlan[*].mac.dcf.channelAccess.pendingQueue.packetCapacity 14
param **.wlan[*].mac.dcf.channelAccess.cwMin 7
param **.wlan[*].radio.transmitter.power 20mW
param **.wlan[*].radio.transmitter.bitrate 2Mbps
param **.wlan[*].radio.transmitter.headerLength 96b
param **.wlan[*].radio.transmitter.centerFrequency 2.4GHz
param **.wlan[*].radio.receiver.sensitivity -85dBm
param **.wlan[*].radio.receiver.snirThreshold 4dB
param **.relayUnit.typename "\"MacRelayUnit\""
param **.relayUnit.addressTableSize 100
param **.relayUnit.agingTime 120s
param **.relayUnit.bufferSize 1MiB
param **.relayUnit.highWatermark 512KiB
param **.relayUnit.pauseUnits 300
param **.relayUnit.addressTableFile "\"\""
param **.relayUnit.numCPUs 2
param **.relayUnit.processingTime 2us

scalar Lan80211.radioMedium.propagation "Arrival computation count" 63
scalar Lan80211.radioMedium "transmission count" 21
scalar Lan80211.radioMedium "signal send count" 63
scalar Lan80211.radioMedium "reception computation count" 63
scalar Lan80211.radioMedium "interference computation count" 195
scalar Lan80211.radioMedium "reception decision computation count" 53
scalar Lan80211.radioMedium "listening decision computation count" 83
scalar Lan80211.radioMedium "reception cache hit" 84.634146341463
attr unit %
scalar Lan80211.radioMedium "interference cache hit" 66.666666666667
attr unit %
scalar Lan80211.radioMedium "noise cache hit" 0
attr unit %
scalar Lan80211.radioMedium "snir cache hit" 50
attr unit %
scalar Lan80211.radioMedium "reception decision cache hit" 50
attr unit %
scalar Lan80211.radioMedium "reception result cache hit" 0
attr unit %
scalar Lan80211.host[0].lo[0].lo rcvdPkFromHl:count 0
attr interpolationmode none
attr source packetReceivedFromUpper
attr title "packets received from higher layer, count"
scalar Lan80211.host[0].lo[0].lo rcvdPkFromHl:sum(packetBytes) 0
attr interpolationmode none
attr source packetReceivedFromUpper
attr title "packets received from higher layer, sum(packetBytes)"
scalar Lan80211.host[0].lo[0].lo passedUpPk:count 0
attr interpolationmode none
attr source packetSentToUpper
attr title "packets passed to higher layer, count"
scalar Lan80211.host[0].lo[0].lo passedUpPk:sum(packetBytes) 0
attr interpolationmode none
attr source packetSentToUpper
attr title "packets passed to higher layer, sum(packetBytes)"
scalar Lan80211.host[0].wlan[0].mac.dcf.channelAccess.pendingQueue packetPopped:count 2
attr interpolationmode none
attr title "packet popped, count"
scalar Lan80211.host[0].wlan[0].mac.dcf.channelAccess.pendingQueue packetPopped:sum(packetBytes) 128
attr interpolationmode none
attr title "packet popped, sum(packetBytes)"
statistic Lan80211.host[0].wlan[0].mac.dcf.channelAccess.pendingQueue queueingTime:histogram
field count 2
field mean 0.0004089999925
field stddev 0.00039456557329549
field min 0.00013
field max 0.000687999985
field sum 0.000817999985
field sqrsum 4.9024397936e-07
attr interpolationmode none
attr source queueingTime(packetPopped)
attr title "queueing times, histogram"
attr unit s
bin	-inf	0
bin	0	0
bin	1e-05	0
bin	2e-05	0
bin	3e-05	0
bin	4e-05	0
bin	5e-05	0
bin	6e-05	0
bin	7e-05	0
bin	8e-05	0
bin	9e-05	0
bin	0.0001	0
bin	0.00011	0
bin	0.00012	1
bin	0.00013	0
bin	0.00014	0
bin	0.00015	0
bin	0.00016	0
bin	0.00017	0
bin	0.00018	0
bin	0.00019	0
bin	0.0002	0
bin	0.00021	0
bin	0.00022	0
bin	0.00023	0
bin	0.00024	0
bin	0.00025	0
bin	0.00026	0
bin	0.00027	0
bin	0.00028	0
bin	0.00029	0
bin	0.0003	0
bin	0.00031	0
bin	0.00032	0
bin	0.00033	0
bin	0.00034	0
bin	0.00035	0
bin	0.00036	0
bin	0.00037	0
bin	0.00038	0
bin	0.00039	0
bin	0.0004	0
bin	0.00041	0
bin	0.00042	0
bin	0.00043	0
bin	0.00044	0
bin	0.00045	0
bin	0.00046	0
bin	0.00047	0
bin	0.00048	0
bin	0.00049	0
bin	0.0005	0
bin	0.00051	0
bin	0.00052	0
bin	0.00053	0
bin	0.00054	0
bin	0.00055	0
bin	0.00056	0
bin	0.00057	0
bin	0.00058	0
bin	0.00059	0
bin	0.0006	0
bin	0.00061	0
bin	0.00062	0
bin	0.00063	0
bin	0.00064	0
bin	0.00065	0
bin	0.00066	0
bin	0.00067	0
bin	0.00068	1
bin	0.00069	0
bin	0.0007	0
bin	0.00071	0
bin	0.00072	0
bin	0.00073	0
bin	0.00074	0
bin	0.00075	0
bin	0.00076	0
bin	0.00077	0
bin	0.00078	0
bin	0.00079	0
bin	0.0008	0
bin	0.00081	0
bin	0.00082	0
bin	0.00083	0
scalar Lan80211.host[0].wlan[0].mac.dcf.channelAccess.pendingQueue queueLength:max 2
attr interpolationmode sample-hold
attr source "count(packetPushed) - count(packetPopped) - count(packetRemoved) - count(packetDropped)"
attr title "queue length, max"
scalar Lan80211.host[0].wlan[0].mac.dcf.channelAccess.pendingQueue queueLength:timeavg 0.11480348293945
attr interpolationmode sample-hold
attr source "count(packetPushed) - count(packetPopped) - count(packetRemoved) - count(packetDropped)"
attr title "queue length, timeavg"
scalar Lan80211.host[0].wlan[0].mac.dcf.channelAccess.pendingQueue packetPushed:count 2
attr interpolationmode none
attr title "packet pushed, count"
scalar Lan80211.host[0].wlan[0].mac.dcf.channelAccess.pendingQueue packetPushed:sum(packetBytes) 128
attr interpolationmode none
attr title "packet pushed, sum(packetBytes)"
scalar Lan80211.host[0].wlan[0].mac.dcf.channelAccess.pendingQueue packetDropQueueOverflow:count 0
attr interpolationmode none
attr source packetDropReasonIsQueueOverflow(packetDropped)
attr title "packet drops: queue overflow, count"
scalar Lan80211.host[0].wlan[0].mac.dcf.channelAccess.pendingQueue packetDropQueueOverflow:sum(packetBytes) 0
attr interpolationmode none
attr source packetDropReasonIsQueueOverflow(packetDropped)
attr title "packet drops: queue overflow, sum(packetBytes)"
scalar Lan80211.host[0].wlan[0].mac.dcf.channelAccess.pendingQueue packetRemoved:count 0
attr interpolationmode none
attr title "packets removed, count"
scalar Lan80211.host[0].wlan[0].mac.dcf.channelAccess.pendingQueue packetRemoved:sum(packetBytes) 0
attr interpolationmode none
attr title "packets removed, sum(packetBytes)"
statistic Lan80211.host[0].wlan[0].mac.dcf.channelAccess.inProgressFrames queueingTime:histogram
field count 2
field mean 0.0010867719955
field stddev 0.00053587943798835
field min 0.000707848011
field max 0.00146569598
field sum 0.002173543991
field sqrsum 2.6493135124648e-06
attr interpolationmode none
attr source queueingTime(packetDequeued)
attr title "queueing times, histogram"
bin	-inf	0
bin	0.0005	0
bin	0.00052	0
bin	0.00054	0
bin	0.00056	0
bin	0.00058	0
bin	0.0006	0
bin	0.00062	0
bin	0.00064	0
bin	0.00066	0
bin	0.00068	0
bin	0.0007	1
bin	0.00072	0
bin	0.00074	0
bin	0.00076	0
bin	0.00078	0
bin	0.0008	0
bin	0.00082	0
bin	0.00084	0
bin	0.00086	0
bin	0.00088	0
bin	0.0009	0
bin	0.00092	0
bin	0.00094	0
bin	0.00096	0
bin	0.00098	0
bin	0.001	0
bin	0.00102	0
bin	0.00104	0
bin	0.00106	0
bin	0.00108	0
bin	0.0011	0
bin	0.00112	0
bin	0.00114	0
bin	0.00116	0
bin	0.00118	0
bin	0.0012	0
bin	0.00122	0
bin	0.00124	0
bin	0.00126	0
bin	0.00128	0
bin	0.0013	0
bin	0.00132	0
bin	0.00134	0
bin	0.00136	0
bin	0.00138	0
bin	0.0014	0
bin	0.00142	0
bin	0.00144	0
bin	0.00146	1
bin	0.00148	0
bin	0.0015	0
bin	0.00152	0
bin	0.00154	0
bin	0.00156	0
bin	0.00158	0
bin	0.0016	0
bin	0.00162	0
bin	0.00164	0
bin	0.00166	0
scalar Lan80211.host[0].wlan[0].mac.dcf.channelAccess.inProgressFrames queueLength:max 2
attr interpolationmode sample-hold
attr source "count(packetEnqueued) - count(packetDequeued)"
attr title "queue length, max"
scalar Lan80211.host[0].wlan[0].mac.dcf.channelAccess.inProgressFrames queueLength:timeavg 0.33765262705047
attr interpolationmode sample-hold
attr source "count(packetEnqueued) - count(packetDequeued)"
attr title "queue length, timeavg"
scalar Lan80211.host[0].wlan[0].mac.dcf.channelAccess.contention channelAccessGranted:count 2
attr title "channel access granted, count"
scalar Lan80211.host[0].wlan[0].mac.dcf.channelAccess.contention stateChanged:count 80
attr interpolationmode none
attr title "contention state changed, count"
scalar Lan80211.host[0].wlan[0].mac.dcf.channelAccess channelOwnershipChanged:count 4
attr interpolationmode sample-hold
attr title "channel ownership, count"
scalar Lan80211.host[0].wlan[0].mac.dcf.originatorMacDataService packetAggregated:count 0
attr title "packets aggregated, count"
scalar Lan80211.host[0].wlan[0].mac.dcf.originatorMacDataService packetFragmented:count 0
attr title "packets fragmented, count"
scalar Lan80211.host[0].wlan[0].mac.dcf.recipientMacDataService packetDeaggregated:count 0
attr title "packets deaggregated, count"
scalar Lan80211.host[0].wlan[0].mac.dcf.recipientMacDataService packetDefragmented:count 2
attr title "packets defragmented, count"
scalar Lan80211.host[0].wlan[0].mac.dcf.recipientMacDataService packetDropDuplicateDetected:count 0
attr interpolationmode none
attr source packetDropReasonIsDuplicateDetected(packetDropped)
attr title "packet drops: duplicate detected, count"
scalar Lan80211.host[0].wlan[0].mac.dcf.recipientMacDataService packetDropDuplicateDetected:sum(packetBytes) 0
attr interpolationmode none
attr source packetDropReasonIsDuplicateDetected(packetDropped)
attr title "packet drops: duplicate detected, sum(packetBytes)"
scalar Lan80211.host[0].wlan[0].mac.dcf.recoveryProcedure retryLimitReached:count 0
attr title "retry limit reached, count"
scalar Lan80211.host[0].wlan[0].mac.dcf frameSequenceFinished:count 2
attr title "finished frame sequences, count"
statistic Lan80211.host[0].wlan[0].mac.dcf frameSequenceDuration:histogram
field count 2
field mean 0.00070784799
field stddev 2.9103830456734e-11
field min 0.000707847969
field max 0.000707848011
field sum 0.00141569598
field sqrsum 1.0020975538941e-06
attr source frameSequenceDuration(frameSequenceFinished)
attr title "frame sequence durations, histogram"
bin	-inf	0
bin	0.000707847958	0
bin	0.000707847959	0
bin	0.00070784796	0
bin	0.000707847961	0
bin	0.000707847962	0
bin	0.000707847963	0
bin	0.000707847964	0
bin	0.000707847965	0
bin	0.000707847966	0
bin	0.000707847967	0
bin	0.000707847968	1
bin	0.000707847969	0
bin	0.00070784797	0
bin	0.000707847971	0
bin	0.000707847972	0
bin	0.000707847973	0
bin	0.000707847974	0
bin	0.000707847975	0
bin	0.000707847976	0
bin	0.000707847977	0
bin	0.000707847978	0
bin	0.000707847979	0
bin	0.00070784798	0
bin	0.000707847981	0
bin	0.000707847982	0
bin	0.000707847983	0
bin	0.000707847984	0
bin	0.000707847985	0
bin	0.000707847986	0
bin	0.000707847987	0
bin	0.000707847988	0
bin	0.000707847989	0
bin	0.00070784799	0
bin	0.000707847991	0
bin	0.000707847992	0
bin	0.000707847993	0
bin	0.000707847994	0
bin	0.000707847995	0
bin	0.000707847996	0
bin	0.000707847997	0
bin	0.000707847998	0
bin	0.000707847999	0
bin	0.000707848	0
bin	0.000707848001	0
bin	0.000707848002	0
bin	0.000707848003	0
bin	0.000707848004	0
bin	0.000707848005	0
bin	0.000707848006	0
bin	0.000707848007	0
bin	0.000707848008	0
bin	0.000707848009	0
bin	0.00070784801	1
bin	0.000707848011	0
bin	0.000707848012	0
bin	0.000707848013	0
bin	0.000707848014	0
bin	0.000707848015	0
bin	0.000707848016	0
bin	0.000707848017	0
bin	0.000707848018	0
bin	0.000707848019	0
bin	0.00070784802	0
bin	0.000707848021	0
bin	0.000707848022	0
statistic Lan80211.host[0].wlan[0].mac.dcf frameSequenceNumPackets:histogram
field count 2
field mean 2
field stddev 0
field min 2
field max 2
field sum 4
field sqrsum 8
attr source frameSequenceNumPackets(frameSequenceFinished)
attr title "frame sequences: number of packets, histogram"
bin	-inf	0
bin	1	0
bin	2	2
bin	3	0
scalar Lan80211.host[0].wlan[0].mac.dcf packetReceivedFromPeer:count 4
attr interpolationmode none
attr title "packets received, count"
scalar Lan80211.host[0].wlan[0].mac.dcf packetReceivedFromPeer:sum(packetBytes) 156
attr interpolationmode none
attr title "packets received, sum(packetBytes)"
scalar Lan80211.host[0].wlan[0].mac.dcf packetReceivedFromPeerUnicast:count 2
attr interpolationmode none
attr source ieee80211Unicast(packetReceivedFromPeer)
attr title "packets received: unicast, count"
scalar Lan80211.host[0].wlan[0].mac.dcf packetReceivedFromPeerUnicast:sum(packetBytes) 28
attr interpolationmode none
attr source ieee80211Unicast(packetReceivedFromPeer)
attr title "packets received: unicast, sum(packetBytes)"
scalar Lan80211.host[0].wlan[0].mac.dcf packetReceivedFromPeerMulticast:count 2
attr interpolationmode none
attr source ieee80211Multicast(packetReceivedFromPeer)
attr title "packets received: multicast, count"
scalar Lan80211.host[0].wlan[0].mac.dcf packetReceivedFromPeerMulticast:sum(packetBytes) 128
attr interpolationmode none
attr source ieee80211Multicast(packetReceivedFromPeer)
attr title "packets received: multicast, sum(packetBytes)"
scalar Lan80211.host[0].wlan[0].mac.dcf packetReceivedFromPeerBroadcast:count 2
attr interpolationmode none
attr source ieee80211Broadcast(packetReceivedFromPeer)
attr title "packets received: broadcast, count"
scalar Lan80211.host[0].wlan[0].mac.dcf packetReceivedFromPeerBroadcast:sum(packetBytes) 128
attr interpolationmode none
attr source ieee80211Broadcast(packetReceivedFromPeer)
attr title "packets received: broadcast, sum(packetBytes)"
scalar Lan80211.host[0].wlan[0].mac.dcf packetReceivedFromPeerWithRetry:count 0
attr interpolationmode none
attr source ieee80211Retry(packetReceivedFromPeer)
attr title "packets received: with retry, count"
scalar Lan80211.host[0].wlan[0].mac.dcf packetReceivedFromPeerWithRetry:sum(packetBytes) 0
attr interpolationmode none
attr source ieee80211Retry(packetReceivedFromPeer)
attr title "packets received: with retry, sum(packetBytes)"
scalar Lan80211.host[0].wlan[0].mac.dcf packetReceivedFromPeerWithoutRetry:count 4
attr interpolationmode none
attr source ieee80211NotRetry(packetReceivedFromPeer)
attr title "packets received: without retry, count"
scalar Lan80211.host[0].wlan[0].mac.dcf packetReceivedFromPeerWithoutRetry:sum(packetBytes) 156
attr interpolationmode none
attr source ieee80211NotRetry(packetReceivedFromPeer)
attr title "packets received: without retry, sum(packetBytes)"
scalar Lan80211.host[0].wlan[0].mac.dcf packetSentToPeer:count 2
attr interpolationmode none
attr title "packets sent, count"
scalar Lan80211.host[0].wlan[0].mac.dcf packetSentToPeer:sum(packetBytes) 128
attr interpolationmode none
attr title "packets sent, sum(packetBytes)"
scalar Lan80211.host[0].wlan[0].mac.dcf packetSentToPeerUnicast:count 2
attr interpolationmode none
attr source ieee80211Unicast(packetSentToPeer)
attr title "packets sent: unicast, count"
scalar Lan80211.host[0].wlan[0].mac.dcf packetSentToPeerUnicast:sum(packetBytes) 128
attr interpolationmode none
attr source ieee80211Unicast(packetSentToPeer)
attr title "packets sent: unicast, sum(packetBytes)"
scalar Lan80211.host[0].wlan[0].mac.dcf packetSentToPeerMulticast:count 0
attr interpolationmode none
attr source ieee80211Multicast(packetSentToPeer)
attr title "packets sent: multicast, count"
scalar Lan80211.host[0].wlan[0].mac.dcf packetSentToPeerMulticast:sum(packetBytes) 0
attr interpolationmode none
attr source ieee80211Multicast(packetSentToPeer)
attr title "packets sent: multicast, sum(packetBytes)"
scalar Lan80211.host[0].wlan[0].mac.dcf packetSentToPeerBroadcast:count 0
attr interpolationmode none
attr source ieee80211Broadcast(packetSentToPeer)
attr title "packets sent: broadcast , count"
scalar Lan80211.host[0].wlan[0].mac.dcf packetSentToPeerBroadcast:sum(packetBytes) 0
attr interpolationmode none
attr source ieee80211Broadcast(packetSentToPeer)
attr title "packets sent: broadcast , sum(packetBytes)"
scalar Lan80211.host[0].wlan[0].mac.dcf packetSentToPeerWithRetry:count 0
attr interpolationmode none
attr source ieee80211Retry(packetSentToPeer)
attr title "packets sent: with retry, count"
scalar Lan80211.host[0].wlan[0].mac.dcf packetSentToPeerWithRetry:sum(packetBytes) 0
attr interpolationmode none
attr source ieee80211Retry(packetSentToPeer)
attr title "packets sent: with retry, sum(packetBytes)"
scalar Lan80211.host[0].wlan[0].mac.dcf packetSentToPeerWithoutRetry:count 2
attr interpolationmode none
attr source ieee80211NotRetry(packetSentToPeer)
attr title "packets sent: without retry, count"
scalar Lan80211.host[0].wlan[0].mac.dcf packetSentToPeerWithoutRetry:sum(packetBytes) 128
attr interpolationmode none
attr source ieee80211NotRetry(packetSentToPeer)
attr title "packets sent: without retry, sum(packetBytes)"
scalar Lan80211.host[0].wlan[0].mac.dcf packetDrop:count 10
attr interpolationmode none
attr source packetDropped
attr title "packet drops, count"
scalar Lan80211.host[0].wlan[0].mac.dcf packetDrop:sum(packetBytes) 391
attr interpolationmode none
attr source packetDropped
attr title "packet drops, sum(packetBytes)"
scalar Lan80211.host[0].wlan[0].mac.dcf packetDropNotAddressedToUs:count 10
attr interpolationmode none
attr source packetDropReasonIsNotAddressedToUs(packetDropped)
attr title "packet drops: not addressed to us, count"
scalar Lan80211.host[0].wlan[0].mac.dcf packetDropNotAddressedToUs:sum(packetBytes) 391
attr interpolationmode none
attr source packetDropReasonIsNotAddressedToUs(packetDropped)
attr title "packet drops: not addressed to us, sum(packetBytes)"
scalar Lan80211.host[0].wlan[0].mac.dcf packetDropQueueOverflow:count 0
attr interpolationmode none
attr source packetDropReasonIsQueueOverflow(packetDropped)
attr title "packet drops: queue overflow, count"
scalar Lan80211.host[0].wlan[0].mac.dcf packetDropQueueOverflow:sum(packetBytes) 0
attr interpolationmode none
attr source packetDropReasonIsQueueOverflow(packetDropped)
attr title "packet drops: queue overflow, sum(packetBytes)"
scalar Lan80211.host[0].wlan[0].mac.dcf packetDropRetryLimitReached:count 0
attr interpolationmode none
attr source packetDropReasonIsRetryLimitReached(packetDropped)
attr title "packet drops: retry limit reached, count"
scalar Lan80211.host[0].wlan[0].mac.dcf packetDropRetryLimitReached:sum(packetBytes) 0
attr interpolationmode none
attr source packetDropReasonIsRetryLimitReached(packetDropped)
attr title "packet drops: retry limit reached, sum(packetBytes)"
scalar Lan80211.host[0].wlan[0].mac.dcf linkBroken:count 0
attr interpolationmode none
attr title "link breaks, count"
scalar Lan80211.host[0].wlan[0].mac packetReceivedFromLower:count 16
attr interpolationmode none
attr title "packets received from lower layer, count"
scalar Lan80211.host[0].wlan[0].mac packetReceivedFromLower:sum(packetBytes) 677
attr interpolationmode none
attr title "packets received from lower layer, sum(packetBytes)"
scalar Lan80211.host[0].wlan[0].mac packetSentToLower:count 2
attr interpolationmode none
attr title "packets sent to lower layer, count"
scalar Lan80211.host[0].wlan[0].mac packetSentToLower:sum(packetBytes) 128
attr interpolationmode none
attr title "packets sent to lower layer, sum(packetBytes)"
scalar Lan80211.host[0].wlan[0].mac packetReceivedFromUpper:count 2
attr interpolationmode none
attr title "packets received from upper layer, count"
scalar Lan80211.host[0].wlan[0].mac packetReceivedFromUpper:sum(packetBytes) 72
attr interpolationmode none
attr title "packets received from upper layer, sum(packetBytes)"
scalar Lan80211.host[0].wlan[0].mac packetSentToUpper:count 2
attr interpolationmode none
attr title "packets sent to upper layer, count"
scalar Lan80211.host[0].wlan[0].mac packetSentToUpper:sum(packetBytes) 72
attr interpolationmode none
attr title "packets sent to upper layer, sum(packetBytes)"
scalar Lan80211.host[0].wlan[0].mac packetDrop:count 12
attr interpolationmode none
attr source packetDropped
attr title "packet drops, count"
scalar Lan80211.host[0].wlan[0].mac packetDrop:sum(packetBytes) 521
attr interpolationmode none
attr source packetDropped
attr title "packet drops, sum(packetBytes)"
scalar Lan80211.host[0].wlan[0].mac packetDropIncorrectlyReceived:count 2
attr interpolationmode none
attr source packetDropReasonIsIncorrectlyReceived(packetDropped)
attr title "packet drops: incorrectly received, count"
scalar Lan80211.host[0].wlan[0].mac packetDropIncorrectlyReceived:sum(packetBytes) 130
attr interpolationmode none
attr source packetDropReasonIsIncorrectlyReceived(packetDropped)
attr title "packet drops: incorrectly received, sum(packetBytes)"
scalar Lan80211.host[0].wlan[0].mac packetDropNotAddressedToUs:count 10
attr interpolationmode none
attr source packetDropReasonIsNotAddressedToUs(packetDropped)
attr title "packet drops: not addressed to us, count"
scalar Lan80211.host[0].wlan[0].mac packetDropNotAddressedToUs:sum(packetBytes) 391
attr interpolationmode none
attr source packetDropReasonIsNotAddressedToUs(packetDropped)
attr title "packet drops: not addressed to us, sum(packetBytes)"
scalar Lan80211.host[0].wlan[0].mac packetDropQueueOverflow:count 0
attr interpolationmode none
attr source packetDropReasonIsQueueOverflow(packetDropped)
attr title "packet drops: queue overflow, count"
scalar Lan80211.host[0].wlan[0].mac packetDropQueueOverflow:sum(packetBytes) 0
attr interpolationmode none
attr source packetDropReasonIsQueueOverflow(packetDropped)
attr title "packet drops: queue overflow, sum(packetBytes)"
scalar Lan80211.host[0].wlan[0].mac packetDropRetryLimitReached:count 0
attr interpolationmode none
attr source packetDropReasonIsRetryLimitReached(packetDropped)
attr title "packet drops: retry limit reached, count"
scalar Lan80211.host[0].wlan[0].mac packetDropRetryLimitReached:sum(packetBytes) 0
attr interpolationmode none
attr source packetDropReasonIsRetryLimitReached(packetDropped)
attr title "packet drops: retry limit reached, sum(packetBytes)"
scalar Lan80211.host[0].wlan[0].mac packetDropDuplicateDetected:count 0
attr interpolationmode none
attr source packetDropReasonIsDuplicateDetected(packetDropped)
attr title "packet drops: duplicate detected, count"
scalar Lan80211.host[0].wlan[0].mac packetDropDuplicateDetected:sum(packetBytes) 0
attr interpolationmode none
attr source packetDropReasonIsDuplicateDetected(packetDropped)
attr title "packet drops: duplicate detected, sum(packetBytes)"
scalar Lan80211.host[0].wlan[0].mac packetDropOther:count 0
attr interpolationmode none
attr source packetDropReasonIsOther(packetDropped)
attr title "packet drops: other, count"
scalar Lan80211.host[0].wlan[0].mac packetDropOther:sum(packetBytes) 0
attr interpolationmode none
attr source packetDropReasonIsOther(packetDropped)
attr title "packet drops: other, sum(packetBytes)"
scalar Lan80211.host[0].wlan[0].mac linkBroken:count 0
attr interpolationmode none
attr title "link breaks, count"
statistic Lan80211.host[0].wlan[0].radio radioChannel:histogram
field count 1
field mean 0
field stddev -nan
field min 0
field max 0
field sum 0
field sqrsum 0
attr interpolationmode sample-hold
attr source radioChannelChanged
attr title "Radio channel, histogram"
bin	-inf	0
bin	-0.5	0
bin	-0.48	0
bin	-0.46	0
bin	-0.44	0
bin	-0.42	0
bin	-0.4	0
bin	-0.38	0
bin	-0.36	0
bin	-0.34	0
bin	-0.32	0
bin	-0.3	0
bin	-0.28	0
bin	-0.26	0
bin	-0.24	0
bin	-0.22	0
bin	-0.2	0
bin	-0.18	0
bin	-0.16	0
bin	-0.14	0
bin	-0.12	0
bin	-0.1	0
bin	-0.08	0
bin	-0.06	0
bin	-0.04	0
bin	-0.02	0
bin	0	1
bin	0.02	0
bin	0.04	0
bin	0.06	0
bin	0.08	0
bin	0.1	0
bin	0.12	0
bin	0.14	0
bin	0.16	0
bin	0.18	0
bin	0.2	0
bin	0.22	0
bin	0.24	0
bin	0.26	0
bin	0.28	0
bin	0.3	0
bin	0.32	0
bin	0.34	0
bin	0.36	0
bin	0.38	0
bin	0.4	0
bin	0.42	0
bin	0.44	0
bin	0.46	0
bin	0.48	0
bin	0.5	0
scalar Lan80211.host[0].wlan[0].radio radioMode:count 7
attr interpolationmode sample-hold
attr source radioModeChanged
attr title "Radio mode, count"
scalar Lan80211.host[0].wlan[0].radio receptionState:count 39
attr interpolationmode sample-hold
attr source receptionStateChanged
attr title "Radio reception state, count"
scalar Lan80211.host[0].wlan[0].radio transmissionState:count 8
attr interpolationmode sample-hold
attr source transmissionStateChanged
attr title "Radio transmission state, count"
statistic Lan80211.host[0].wlan[0].radio minSnir:histogram
field count 16
field mean 2576.4412561777
field stddev 1570.0405064043
field min 0.52405162349143
field max 5202.2234186502
field sum 41223.060098842
field sqrsum 143184200.6208
attr source minimumSnir(packetSentToUpper)
attr title "Min SNIR, histogram"
bin	-inf	0
bin	0	2
bin	100	0
bin	200	0
bin	300	0
bin	400	0
bin	500	0
bin	600	0
bin	700	0
bin	800	0
bin	900	0
bin	1000	0
bin	1100	0
bin	1200	0
bin	1300	2
bin	1400	0
bin	1500	0
bin	1600	0
bin	1700	0
bin	1800	0
bin	1900	0
bin	2000	0
bin	2100	0
bin	2200	0
bin	2300	0
bin	2400	0
bin	2500	9
bin	2600	0
bin	2700	0
bin	2800	0
bin	2900	0
bin	3000	0
bin	3100	0
bin	3200	0
bin	3300	0
bin	3400	0
bin	3500	0
bin	3600	0
bin	3700	0
bin	3800	0
bin	3900	0
bin	4000	0
bin	4100	0
bin	4200	0
bin	4300	0
bin	4400	0
bin	4500	0
bin	4600	0
bin	4700	0
bin	4800	0
bin	4900	0
bin	5000	0
bin	5100	1
bin	5200	2
bin	5300	0
bin	5400	0
bin	5500	0
bin	5600	0
bin	5700	0
bin	5800	0
bin	5900	0
bin	6000	0
bin	6100	0
bin	6200	0
bin	6300	0
bin	6400	0
bin	6500	0
bin	6600	0
statistic Lan80211.host[0].wlan[0].radio packetErrorRate:histogram
field count 16
field mean 0.125
field stddev 0.34156502553199
field min 0
field max 1
field sum 2
field sqrsum 2
attr source packetErrorRate(packetSentToUpper)
attr title "Packet error rate, histogram"
bin	-inf	0
bin	0	14
bin	1	2
bin	2	0
statistic Lan80211.host[0].wlan[0].radio bitErrorRate:histogram
field count 0
field mean -nan
field stddev nan
field min nan
field max nan
field sum 0
field sqrsum 0
attr source bitErrorRate(packetSentToUpper)
attr title "Bit error rate, histogram"
bin	-inf	0
bin	0	0
bin	1	0
statistic Lan80211.host[0].wlan[0].radio symbolErrorRate:histogram
field count 0
field mean -nan
field stddev nan
field min nan
field max nan
field sum 0
field sqrsum 0
attr source symbolErrorRate(packetSentToUpper)
attr title "Symbol error rate, histogram"
bin	-inf	0
bin	0	0
bin	1	0
scalar Lan80211.host[0].ipv4.ip packetDropAddressResolutionFailed:count 0
attr interpolationmode none
attr source packetDropReasonIsAddressResolutionFailed(packetDropped)
attr title "packet drop: address resolution failed, count"
scalar Lan80211.host[0].ipv4.ip packetDropAddressResolutionFailed:sum(packetBytes) 0
attr interpolationmode none
attr source packetDropReasonIsAddressResolutionFailed(packetDropped)
attr title "packet drop: address resolution failed, sum(packetBytes)"
scalar Lan80211.host[0].ipv4.ip packetDropHopLimitReached:count 0
attr interpolationmode none
attr source packetDropReasonIsHopLimitReached(packetDropped)
attr title "packet drop: hop limit reached, count"
scalar Lan80211.host[0].ipv4.ip packetDropHopLimitReached:sum(packetBytes) 0
attr interpolationmode none
attr source packetDropReasonIsHopLimitReached(packetDropped)
attr title "packet drop: hop limit reached, sum(packetBytes)"
scalar Lan80211.host[0].ipv4.ip packetDropForwardingDisabled:count 0
attr interpolationmode none
attr source packetDropReasonIsForwardingDisabled(packetDropped)
attr title "packet drop: forwarding disabled, count"
scalar Lan80211.host[0].ipv4.ip packetDropForwardingDisabled:sum(packetBytes) 0
attr interpolationmode none
attr source packetDropReasonIsForwardingDisabled(packetDropped)
attr title "packet drop: forwarding disabled, sum(packetBytes)"
scalar Lan80211.host[0].ipv4.ip packetDropNoInterfaceFound:count 0
attr interpolationmode none
attr source packetDropReasonIsNoInterfaceFound(packetDropped)
attr title "packet drop: no interface found, count"
scalar Lan80211.host[0].ipv4.ip packetDropNoInterfaceFound:sum(packetBytes) 0
attr interpolationmode none
attr source packetDropReasonIsNoInterfaceFound(packetDropped)
attr title "packet drop: no interface found, sum(packetBytes)"
scalar Lan80211.host[0].ipv4.ip packetDropNoRouteFound:count 0
attr interpolationmode none
attr source packetDropReasonIsNoRouteFound(packetDropped)
attr title "packet drop: no route found, count"
scalar Lan80211.host[0].ipv4.ip packetDropNoRouteFound:sum(packetBytes) 0
attr interpolationmode none
attr source packetDropReasonIsNoRouteFound(packetDropped)
attr title "packet drop: no route found, sum(packetBytes)"
scalar Lan80211.host[0].ipv4.ip packetDropUndefined:count 0
attr interpolationmode none
attr source packetDropReasonIsUndefined(packetDropped)
attr title "packet drop: undefined, count"
scalar Lan80211.host[0].ipv4.ip packetDropUndefined:sum(packetBytes) 0
attr interpolationmode none
attr source packetDropReasonIsUndefined(packetDropped)
attr title "packet drop: undefined, sum(packetBytes)"
scalar Lan80211.host[0].ipv4.arp arpResolutionFailed:count 0
attr title "ARP failed resolutions, count"
scalar Lan80211.host[0].ipv4.arp arpResolutionCompleted:count 2
attr title "ARP completed resolutions, count"
scalar Lan80211.host[0].ipv4.arp arpResolutionInitiated:count 0
attr title "ARP initiated resolutions, count"
scalar Lan80211.host[0].ipv4.arp arpReplySent:count 2
attr source arpReplySent
attr title "ARP replies sent, count"
scalar Lan80211.host[0].ipv4.arp arpReplySent:sum(packetBytes) 56
attr source arpReplySent
attr title "ARP replies sent, sum(packetBytes)"
scalar Lan80211.host[0].ipv4.arp arpRequestSent:count 0
attr source arpRequestSent
attr title "ARP request sent, count"
scalar Lan80211.host[0].ipv4.arp arpRequestSent:sum(packetBytes) 0
attr source arpRequestSent
attr title "ARP request sent, sum(packetBytes)"
scalar Lan80211.host[0].udp packetReceived:count 0
attr interpolationmode none
attr source packetReceived
attr title "packets received, count"
scalar Lan80211.host[0].udp packetReceived:sum(packetBytes) 0
attr interpolationmode none
attr source packetReceived
attr title "packets received, sum(packetBytes)"
scalar Lan80211.host[0].udp packetSent:count 0
attr interpolationmode none
attr source packetSent
attr title "packets sent, count"
scalar Lan80211.host[0].udp packetSent:sum(packetBytes) 0
attr interpolationmode none
attr source packetSent
attr title "packets sent, sum(packetBytes)"
scalar Lan80211.host[0].udp passedUpPk:count 0
attr interpolationmode none
attr source packetSentToUpper
attr title "packets passed up, count"
scalar Lan80211.host[0].udp droppedPkWrongPort:count 0
attr interpolationmode none
attr source packetDropReasonIsNoPortFound(packetDropped)
attr title "packets dropped (wrong port), count"
scalar Lan80211.host[0].udp droppedPkBadChecksum:count 0
attr interpolationmode none
attr source packetDropReasonIsIncorrectlyReceived(packetDropped)
attr title "packets dropped (checksum error), count"
scalar Lan80211.host[0].app[0] packetSent:count 0
attr interpolationmode none
attr source packetSent
attr title "packets sent, count"
scalar Lan80211.host[0].app[0] packetSent:sum(packetBytes) 0
attr interpolationmode none
attr source packetSent
attr title "packets sent, sum(packetBytes)"
scalar Lan80211.host[0].app[0] reqStreamBytes:count 0
attr interpolationmode none
attr title "requested stream bytes, count"
scalar Lan80211.host[0].app[0] reqStreamBytes:sum 0
attr interpolationmode none
attr title "requested stream bytes, sum"
scalar Lan80211.host[1].lo[0].lo rcvdPkFromHl:count 0
attr interpolationmode none
attr source packetReceivedFromUpper
attr title "packets received from higher layer, count"
scalar Lan80211.host[1].lo[0].lo rcvdPkFromHl:sum(packetBytes) 0
attr interpolationmode none
attr source packetReceivedFromUpper
attr title "packets received from higher layer, sum(packetBytes)"
scalar Lan80211.host[1].lo[0].lo passedUpPk:count 0
attr interpolationmode none
attr source packetSentToUpper
attr title "packets passed to higher layer, count"
scalar Lan80211.host[1].lo[0].lo passedUpPk:sum(packetBytes) 0
attr interpolationmode none
attr source packetSentToUpper
attr title "packets passed to higher layer, sum(packetBytes)"
scalar Lan80211.host[1].wlan[0].mac.dcf.channelAccess.pendingQueue packetPopped:count 2
attr interpolationmode none
attr title "packet popped, count"
scalar Lan80211.host[1].wlan[0].mac.dcf.channelAccess.pendingQueue packetPopped:sum(packetBytes) 129
attr interpolationmode none
attr title "packet popped, sum(packetBytes)"
statistic Lan80211.host[1].wlan[0].mac.dcf.channelAccess.pendingQueue queueingTime:histogram
field count 2
field mean 0.000219
field stddev 0.00015414927829867
field min 0.00011
field max 0.000328
field sum 0.000438
field sqrsum 1.19684e-07
attr interpolationmode none
attr source queueingTime(packetPopped)
attr title "queueing times, histogram"
attr unit s
bin	-inf	0
bin	5.5e-05	0
bin	6e-05	0
bin	6.5e-05	0
bin	7e-05	0
bin	7.5e-05	0
bin	8e-05	0
bin	8.5e-05	0
bin	9e-05	0
bin	9.5e-05	0
bin	0.0001	0
bin	0.000105	1
bin	0.00011	0
bin	0.000115	0
bin	0.00012	0
bin	0.000125	0
bin	0.00013	0
bin	0.000135	0
bin	0.00014	0
bin	0.000145	0
bin	0.00015	0
bin	0.000155	0
bin	0.00016	0
bin	0.000165	0
bin	0.00017	0
bin	0.000175	0
bin	0.00018	0
bin	0.000185	0
bin	0.00019	0
bin	0.000195	0
bin	0.0002	0
bin	0.000205	0
bin	0.00021	0
bin	0.000215	0
bin	0.00022	0
bin	0.000225	0
bin	0.00023	0
bin	0.000235	0
bin	0.00024	0
bin	0.000245	0
bin	0.00025	0
bin	0.000255	0
bin	0.00026	0
bin	0.000265	0
bin	0.00027	0
bin	0.000275	0
bin	0.00028	0
bin	0.000285	0
bin	0.00029	0
bin	0.000295	0
bin	0.0003	0
bin	0.000305	0
bin	0.00031	0
bin	0.000315	0
bin	0.00032	0
bin	0.000325	1
bin	0.00033	0
bin	0.000335	0
bin	0.00034	0
bin	0.000345	0
bin	0.00035	0
bin	0.000355	0
bin	0.00036	0
bin	0.000365	0
bin	0.00037	0
bin	0.000375	0
bin	0.00038	0
bin	0.000385	0
scalar Lan80211.host[1].wlan[0].mac.dcf.channelAccess.pendingQueue queueLength:max 1
attr interpolationmode sample-hold
attr source "count(packetPushed) - count(packetPopped) - count(packetRemoved) - count(packetDropped)"
attr title "queue length, max"
scalar Lan80211.host[1].wlan[0].mac.dcf.channelAccess.pendingQueue queueLength:timeavg 0.047312295598623
attr interpolationmode sample-hold
attr source "count(packetPushed) - count(packetPopped) - count(packetRemoved) - count(packetDropped)"
attr title "queue length, timeavg"
scalar Lan80211.host[1].wlan[0].mac.dcf.channelAccess.pendingQueue packetPushed:count 2
attr interpolationmode none
attr title "packet pushed, count"
scalar Lan80211.host[1].wlan[0].mac.dcf.channelAccess.pendingQueue packetPushed:sum(packetBytes) 129
attr interpolationmode none
attr title "packet pushed, sum(packetBytes)"
scalar Lan80211.host[1].wlan[0].mac.dcf.channelAccess.pendingQueue packetDropQueueOverflow:count 0
attr interpolationmode none
attr source packetDropReasonIsQueueOverflow(packetDropped)
attr title "packet drops: queue overflow, count"
scalar Lan80211.host[1].wlan[0].mac.dcf.channelAccess.pendingQueue packetDropQueueOverflow:sum(packetBytes) 0
attr interpolationmode none
attr source packetDropReasonIsQueueOverflow(packetDropped)
attr title "packet drops: queue overflow, sum(packetBytes)"
scalar Lan80211.host[1].wlan[0].mac.dcf.channelAccess.pendingQueue packetRemoved:count 0
attr interpolationmode none
attr title "packets removed, count"
scalar Lan80211.host[1].wlan[0].mac.dcf.channelAccess.pendingQueue packetRemoved:sum(packetBytes) 0
attr interpolationmode none
attr title "packets removed, sum(packetBytes)"
statistic Lan80211.host[1].wlan[0].mac.dcf.channelAccess.inProgressFrames queueingTime:histogram
field count 1
field mean 0.000706860248
field stddev -nan
field min 0.000706860248
field max 0.000706860248
field sum 0.000706860248
field sqrsum 4.9965141020262e-07
attr interpolationmode none
attr source queueingTime(packetDequeued)
attr title "queueing times, histogram"
bin	-inf	0
bin	0	1
bin	0.01	0
bin	0.02	0
bin	0.03	0
bin	0.04	0
bin	0.05	0
bin	0.06	0
bin	0.07	0
bin	0.08	0
bin	0.09	0
bin	0.1	0
bin	0.11	0
bin	0.12	0
bin	0.13	0
bin	0.14	0
bin	0.15	0
bin	0.16	0
bin	0.17	0
bin	0.18	0
bin	0.19	0
bin	0.2	0
bin	0.21	0
bin	0.22	0
bin	0.23	0
bin	0.24	0
bin	0.25	0
bin	0.26	0
bin	0.27	0
bin	0.28	0
bin	0.29	0
bin	0.3	0
bin	0.31	0
bin	0.32	0
bin	0.33	0
bin	0.34	0
bin	0.35	0
bin	0.36	0
bin	0.37	0
bin	0.38	0
bin	0.39	0
bin	0.4	0
bin	0.41	0
bin	0.42	0
bin	0.43	0
bin	0.44	0
bin	0.45	0
bin	0.46	0
bin	0.47	0
bin	0.48	0
bin	0.49	0
bin	0.5	0
bin	0.51	0
scalar Lan80211.host[1].wlan[0].mac.dcf.channelAccess.inProgressFrames queueLength:max 1
attr interpolationmode sample-hold
attr source "count(packetEnqueued) - count(packetDequeued)"
attr title "queue length, max"
scalar Lan80211.host[1].wlan[0].mac.dcf.channelAccess.inProgressFrames queueLength:timeavg 0.51520163892909
attr interpolationmode sample-hold
attr source "count(packetEnqueued) - count(packetDequeued)"
attr title "queue length, timeavg"
scalar Lan80211.host[1].wlan[0].mac.dcf.channelAccess.contention channelAccessGranted:count 3
attr title "channel access granted, count"
scalar Lan80211.host[1].wlan[0].mac.dcf.channelAccess.contention stateChanged:count 90
attr interpolationmode none
attr title "contention state changed, count"
scalar Lan80211.host[1].wlan[0].mac.dcf.channelAccess channelOwnershipChanged:count 6
attr interpolationmode sample-hold
attr title "channel ownership, count"
scalar Lan80211.host[1].wlan[0].mac.dcf.originatorMacDataService packetAggregated:count 0
attr title "packets aggregated, count"
scalar Lan80211.host[1].wlan[0].mac.dcf.originatorMacDataService packetFragmented:count 0
attr title "packets fragmented, count"
scalar Lan80211.host[1].wlan[0].mac.dcf.recipientMacDataService packetDeaggregated:count 0
attr title "packets deaggregated, count"
scalar Lan80211.host[1].wlan[0].mac.dcf.recipientMacDataService packetDefragmented:count 2
attr title "packets defragmented, count"
scalar Lan80211.host[1].wlan[0].mac.dcf.recipientMacDataService packetDropDuplicateDetected:count 0
attr interpolationmode none
attr source packetDropReasonIsDuplicateDetected(packetDropped)
attr title "packet drops: duplicate detected, count"
scalar Lan80211.host[1].wlan[0].mac.dcf.recipientMacDataService packetDropDuplicateDetected:sum(packetBytes) 0
attr interpolationmode none
attr source packetDropReasonIsDuplicateDetected(packetDropped)
attr title "packet drops: duplicate detected, sum(packetBytes)"
scalar Lan80211.host[1].wlan[0].mac.dcf.recoveryProcedure retryLimitReached:count 0
attr title "retry limit reached, count"
scalar Lan80211.host[1].wlan[0].mac.dcf frameSequenceFinished:count 3
attr title "finished frame sequences, count"
statistic Lan80211.host[1].wlan[0].mac.dcf frameSequenceDuration:histogram
field count 3
field mean 0.000684953416
field stddev 1.8971873028432e-05
field min 0.000674
field max 0.000706860248
field sum 0.002054860248
field sqrsum 1.4082034102026e-06
attr source frameSequenceDuration(frameSequenceFinished)
attr title "frame sequence durations, histogram"
bin	-inf	0
bin	0.000665	0
bin	0.000666	0
bin	0.000667	0
bin	0.000668	0
bin	0.000669	0
bin	0.00067	0
bin	0.000671	0
bin	0.000672	0
bin	0.000673	2
bin	0.000674	0
bin	0.000675	0
bin	0.000676	0
bin	0.000677	0
bin	0.000678	0
bin	0.000679	0
bin	0.00068	0
bin	0.000681	0
bin	0.000682	0
bin	0.000683	0
bin	0.000684	0
bin	0.000685	0
bin	0.000686	0
bin	0.000687	0
bin	0.000688	0
bin	0.000689	0
bin	0.00069	0
bin	0.000691	0
bin	0.000692	0
bin	0.000693	0
bin	0.000694	0
bin	0.000695	0
bin	0.000696	0
bin	0.000697	0
bin	0.000698	0
bin	0.000699	0
bin	0.0007	0
bin	0.000701	0
bin	0.000702	0
bin	0.000703	0
bin	0.000704	0
bin	0.000705	0
bin	0.000706	1
bin	0.000707	0
bin	0.000708	0
bin	0.000709	0
bin	0.00071	0
bin	0.000711	0
bin	0.000712	0
bin	0.000713	0
bin	0.000714	0
bin	0.000715	0
bin	0.000716	0
statistic Lan80211.host[1].wlan[0].mac.dcf frameSequenceNumPackets:histogram
field count 3
field mean 2
field stddev 0
field min 2
field max 2
field sum 6
field sqrsum 12
attr source frameSequenceNumPackets(frameSequenceFinished)
attr title "frame sequences: number of packets, histogram"
bin	-inf	0
bin	1	0
bin	2	3
bin	3	0
scalar Lan80211.host[1].wlan[0].mac.dcf packetReceivedFromPeer:count 3
attr interpolationmode none
attr title "packets received, count"
scalar Lan80211.host[1].wlan[0].mac.dcf packetReceivedFromPeer:sum(packetBytes) 142
attr interpolationmode none
attr title "packets received, sum(packetBytes)"
scalar Lan80211.host[1].wlan[0].mac.dcf packetReceivedFromPeerUnicast:count 2
attr interpolationmode none
attr source ieee80211Unicast(packetReceivedFromPeer)
attr title "packets received: unicast, count"
scalar Lan80211.host[1].wlan[0].mac.dcf packetReceivedFromPeerUnicast:sum(packetBytes) 78
attr interpolationmode none
attr source ieee80211Unicast(packetReceivedFromPeer)
attr title "packets received: unicast, sum(packetBytes)"
scalar Lan80211.host[1].wlan[0].mac.dcf packetReceivedFromPeerMulticast:count 1
attr interpolationmode none
attr source ieee80211Multicast(packetReceivedFromPeer)
attr title "packets received: multicast, count"
scalar Lan80211.host[1].wlan[0].mac.dcf packetReceivedFromPeerMulticast:sum(packetBytes) 64
attr interpolationmode none
attr source ieee80211Multicast(packetReceivedFromPeer)
attr title "packets received: multicast, sum(packetBytes)"
scalar Lan80211.host[1].wlan[0].mac.dcf packetReceivedFromPeerBroadcast:count 1
attr interpolationmode none
attr source ieee80211Broadcast(packetReceivedFromPeer)
attr title "packets received: broadcast, count"
scalar Lan80211.host[1].wlan[0].mac.dcf packetReceivedFromPeerBroadcast:sum(packetBytes) 64
attr interpolationmode none
attr source ieee80211Broadcast(packetReceivedFromPeer)
attr title "packets received: broadcast, sum(packetBytes)"
scalar Lan80211.host[1].wlan[0].mac.dcf packetReceivedFromPeerWithRetry:count 0
attr interpolationmode none
attr source ieee80211Retry(packetReceivedFromPeer)
attr title "packets received: with retry, count"
scalar Lan80211.host[1].wlan[0].mac.dcf packetReceivedFromPeerWithRetry:sum(packetBytes) 0
attr interpolationmode none
attr source ieee80211Retry(packetReceivedFromPeer)
attr title "packets received: with retry, sum(packetBytes)"
scalar Lan80211.host[1].wlan[0].mac.dcf packetReceivedFromPeerWithoutRetry:count 3
attr interpolationmode none
attr source ieee80211NotRetry(packetReceivedFromPeer)
attr title "packets received: without retry, count"
scalar Lan80211.host[1].wlan[0].mac.dcf packetReceivedFromPeerWithoutRetry:sum(packetBytes) 142
attr interpolationmode none
attr source ieee80211NotRetry(packetReceivedFromPeer)
attr title "packets received: without retry, sum(packetBytes)"
scalar Lan80211.host[1].wlan[0].mac.dcf packetSentToPeer:count 4
attr interpolationmode none
attr title "packets sent, count"
scalar Lan80211.host[1].wlan[0].mac.dcf packetSentToPeer:sum(packetBytes) 208
attr interpolationmode none
attr title "packets sent, sum(packetBytes)"
scalar Lan80211.host[1].wlan[0].mac.dcf packetSentToPeerUnicast:count 4
attr interpolationmode none
attr source ieee80211Unicast(packetSentToPeer)
attr title "packets sent: unicast, count"
scalar Lan80211.host[1].wlan[0].mac.dcf packetSentToPeerUnicast:sum(packetBytes) 208
attr interpolationmode none
attr source ieee80211Unicast(packetSentToPeer)
attr title "packets sent: unicast, sum(packetBytes)"
scalar Lan80211.host[1].wlan[0].mac.dcf packetSentToPeerMulticast:count 0
attr interpolationmode none
attr source ieee80211Multicast(packetSentToPeer)
attr title "packets sent: multicast, count"
scalar Lan80211.host[1].wlan[0].mac.dcf packetSentToPeerMulticast:sum(packetBytes) 0
attr interpolationmode none
attr source ieee80211Multicast(packetSentToPeer)
attr title "packets sent: multicast, sum(packetBytes)"
scalar Lan80211.host[1].wlan[0].mac.dcf packetSentToPeerBroadcast:count 0
attr interpolationmode none
attr source ieee80211Broadcast(packetSentToPeer)
attr title "packets sent: broadcast , count"
scalar Lan80211.host[1].wlan[0].mac.dcf packetSentToPeerBroadcast:sum(packetBytes) 0
attr interpolationmode none
attr source ieee80211Broadcast(packetSentToPeer)
attr title "packets sent: broadcast , sum(packetBytes)"
scalar Lan80211.host[1].wlan[0].mac.dcf packetSentToPeerWithRetry:count 1
attr interpolationmode none
attr source ieee80211Retry(packetSentToPeer)
attr title "packets sent: with retry, count"
scalar Lan80211.host[1].wlan[0].mac.dcf packetSentToPeerWithRetry:sum(packetBytes) 65
attr interpolationmode none
attr source ieee80211Retry(packetSentToPeer)
attr title "packets sent: with retry, sum(packetBytes)"
scalar Lan80211.host[1].wlan[0].mac.dcf packetSentToPeerWithoutRetry:count 3
attr interpolationmode none
attr source ieee80211NotRetry(packetSentToPeer)
attr title "packets sent: without retry, count"
scalar Lan80211.host[1].wlan[0].mac.dcf packetSentToPeerWithoutRetry:sum(packetBytes) 143
attr interpolationmode none
attr source ieee80211NotRetry(packetSentToPeer)
attr title "packets sent: without retry, sum(packetBytes)"
scalar Lan80211.host[1].wlan[0].mac.dcf packetDrop:count 12
attr interpolationmode none
attr source packetDropped
attr title "packet drops, count"
scalar Lan80211.host[1].wlan[0].mac.dcf packetDrop:sum(packetBytes) 520
attr interpolationmode none
attr source packetDropped
attr title "packet drops, sum(packetBytes)"
scalar Lan80211.host[1].wlan[0].mac.dcf packetDropNotAddressedToUs:count 12
attr interpolationmode none
attr source packetDropReasonIsNotAddressedToUs(packetDropped)
attr title "packet drops: not addressed to us, count"
scalar Lan80211.host[1].wlan[0].mac.dcf packetDropNotAddressedToUs:sum(packetBytes) 520
attr interpolationmode none
attr source packetDropReasonIsNotAddressedToUs(packetDropped)
attr title "packet drops: not addressed to us, sum(packetBytes)"
scalar Lan80211.host[1].wlan[0].mac.dcf packetDropQueueOverflow:count 0
attr interpolationmode none
attr source packetDropReasonIsQueueOverflow(packetDropped)
attr title "packet drops: queue overflow, count"
scalar Lan80211.host[1].wlan[0].mac.dcf packetDropQueueOverflow:sum(packetBytes) 0
attr interpolationmode none
attr source packetDropReasonIsQueueOverflow(packetDropped)
attr title "packet drops: queue overflow, sum(packetBytes)"
scalar Lan80211.host[1].wlan[0].mac.dcf packetDropRetryLimitReached:count 0
attr interpolationmode none
attr source packetDropReasonIsRetryLimitReached(packetDropped)
attr title "packet drops: retry limit reached, count"
scalar Lan80211.host[1].wlan[0].mac.dcf packetDropRetryLimitReached:sum(packetBytes) 0
attr interpolationmode none
attr source packetDropReasonIsRetryLimitReached(packetDropped)
attr title "packet drops: retry limit reached, sum(packetBytes)"
scalar Lan80211.host[1].wlan[0].mac.dcf linkBroken:count 0
attr interpolationmode none
attr title "link breaks, count"
scalar Lan80211.host[1].wlan[0].mac packetReceivedFromLower:count 15
attr interpolationmode none
attr title "packets received from lower layer, count"
scalar Lan80211.host[1].wlan[0].mac packetReceivedFromLower:sum(packetBytes) 662
attr interpolationmode none
attr title "packets received from lower layer, sum(packetBytes)"
scalar Lan80211.host[1].wlan[0].mac packetSentToLower:count 4
attr interpolationmode none
attr title "packets sent to lower layer, count"
scalar Lan80211.host[1].wlan[0].mac packetSentToLower:sum(packetBytes) 208
attr interpolationmode none
attr title "packets sent to lower layer, sum(packetBytes)"
scalar Lan80211.host[1].wlan[0].mac packetReceivedFromUpper:count 2
attr interpolationmode none
attr title "packets received from upper layer, count"
scalar Lan80211.host[1].wlan[0].mac packetReceivedFromUpper:sum(packetBytes) 73
attr interpolationmode none
attr title "packets received from upper layer, sum(packetBytes)"
scalar Lan80211.host[1].wlan[0].mac packetSentToUpper:count 2
attr interpolationmode none
attr title "packets sent to upper layer, count"
scalar Lan80211.host[1].wlan[0].mac packetSentToUpper:sum(packetBytes) 72
attr interpolationmode none
attr title "packets sent to upper layer, sum(packetBytes)"
scalar Lan80211.host[1].wlan[0].mac packetDrop:count 12
attr interpolationmode none
attr source packetDropped
attr title "packet drops, count"
scalar Lan80211.host[1].wlan[0].mac packetDrop:sum(packetBytes) 520
attr interpolationmode none
attr source packetDropped
attr title "packet drops, sum(packetBytes)"
scalar Lan80211.host[1].wlan[0].mac packetDropIncorrectlyReceived:count 0
attr interpolationmode none
attr source packetDropReasonIsIncorrectlyReceived(packetDropped)
attr title "packet drops: incorrectly received, count"
scalar Lan80211.host[1].wlan[0].mac packetDropIncorrectlyReceived:sum(packetBytes) 0
attr interpolationmode none
attr source packetDropReasonIsIncorrectlyReceived(packetDropped)
attr title "packet drops: incorrectly received, sum(packetBytes)"
scalar Lan80211.host[1].wlan[0].mac packetDropNotAddressedToUs:count 12
attr interpolationmode none
attr source packetDropReasonIsNotAddressedToUs(packetDropped)
attr title "packet drops: not addressed to us, count"
scalar Lan80211.host[1].wlan[0].mac packetDropNotAddressedToUs:sum(packetBytes) 520
attr interpolationmode none
attr source packetDropReasonIsNotAddressedToUs(packetDropped)
attr title "packet drops: not addressed to us, sum(packetBytes)"
scalar Lan80211.host[1].wlan[0].mac packetDropQueueOverflow:count 0
attr interpolationmode none
attr source packetDropReasonIsQueueOverflow(packetDropped)
attr title "packet drops: queue overflow, count"
scalar Lan80211.host[1].wlan[0].mac packetDropQueueOverflow:sum(packetBytes) 0
attr interpolationmode none
attr source packetDropReasonIsQueueOverflow(packetDropped)
attr title "packet drops: queue overflow, sum(packetBytes)"
scalar Lan80211.host[1].wlan[0].mac packetDropRetryLimitReached:count 0
attr interpolationmode none
attr source packetDropReasonIsRetryLimitReached(packetDropped)
attr title "packet drops: retry limit reached, count"
scalar Lan80211.host[1].wlan[0].mac packetDropRetryLimitReached:sum(packetBytes) 0
attr interpolationmode none
attr source packetDropReasonIsRetryLimitReached(packetDropped)
attr title "packet drops: retry limit reached, sum(packetBytes)"
scalar Lan80211.host[1].wlan[0].mac packetDropDuplicateDetected:count 0
attr interpolationmode none
attr source packetDropReasonIsDuplicateDetected(packetDropped)
attr title "packet drops: duplicate detected, count"
scalar Lan80211.host[1].wlan[0].mac packetDropDuplicateDetected:sum(packetBytes) 0
attr interpolationmode none
attr source packetDropReasonIsDuplicateDetected(packetDropped)
attr title "packet drops: duplicate detected, sum(packetBytes)"
scalar Lan80211.host[1].wlan[0].mac packetDropOther:count 0
attr interpolationmode none
attr source packetDropReasonIsOther(packetDropped)
attr title "packet drops: other, count"
scalar Lan80211.host[1].wlan[0].mac packetDropOther:sum(packetBytes) 0
attr interpolationmode none
attr source packetDropReasonIsOther(packetDropped)
attr title "packet drops: other, sum(packetBytes)"
scalar Lan80211.host[1].wlan[0].mac linkBroken:count 0
attr interpolationmode none
attr title "link breaks, count"
statistic Lan80211.host[1].wlan[0].radio radioChannel:histogram
field count 1
field mean 0
field stddev -nan
field min 0
field max 0
field sum 0
field sqrsum 0
attr interpolationmode sample-hold
attr source radioChannelChanged
attr title "Radio channel, histogram"
bin	-inf	0
bin	-0.5	0
bin	-0.48	0
bin	-0.46	0
bin	-0.44	0
bin	-0.42	0
bin	-0.4	0
bin	-0.38	0
bin	-0.36	0
bin	-0.34	0
bin	-0.32	0
bin	-0.3	0
bin	-0.28	0
bin	-0.26	0
bin	-0.24	0
bin	-0.22	0
bin	-0.2	0
bin	-0.18	0
bin	-0.16	0
bin	-0.14	0
bin	-0.12	0
bin	-0.1	0
bin	-0.08	0
bin	-0.06	0
bin	-0.04	0
bin	-0.02	0
bin	0	1
bin	0.02	0
bin	0.04	0
bin	0.06	0
bin	0.08	0
bin	0.1	0
bin	0.12	0
bin	0.14	0
bin	0.16	0
bin	0.18	0
bin	0.2	0
bin	0.22	0
bin	0.24	0
bin	0.26	0
bin	0.28	0
bin	0.3	0
bin	0.32	0
bin	0.34	0
bin	0.36	0
bin	0.38	0
bin	0.4	0
bin	0.42	0
bin	0.44	0
bin	0.46	0
bin	0.48	0
bin	0.5	0
scalar Lan80211.host[1].wlan[0].radio radioMode:count 11
attr interpolationmode sample-hold
attr source radioModeChanged
attr title "Radio mode, count"
scalar Lan80211.host[1].wlan[0].radio receptionState:count 40
attr interpolationmode sample-hold
attr source receptionStateChanged
attr title "Radio reception state, count"
scalar Lan80211.host[1].wlan[0].radio transmissionState:count 16
attr interpolationmode sample-hold
attr source transmissionStateChanged
attr title "Radio transmission state, count"
statistic Lan80211.host[1].wlan[0].radio minSnir:histogram
field count 15
field mean 8870.994941994
field stddev 4297.7969795447
field min 1337.1593892617
field max 11765.761629731
field sum 133064.92412991
field sqrsum 1439013093.1966
attr source minimumSnir(packetSentToUpper)
attr title "Min SNIR, histogram"
bin	-inf	0
bin	0	0
bin	200	0
bin	400	0
bin	600	0
bin	800	0
bin	1000	0
bin	1200	2
bin	1400	0
bin	1600	0
bin	1800	0
bin	2000	0
bin	2200	0
bin	2400	0
bin	2600	0
bin	2800	0
bin	3000	0
bin	3200	0
bin	3400	0
bin	3600	0
bin	3800	0
bin	4000	0
bin	4200	3
bin	4400	0
bin	4600	0
bin	4800	0
bin	5000	0
bin	5200	0
bin	5400	0
bin	5600	0
bin	5800	0
bin	6000	0
bin	6200	0
bin	6400	0
bin	6600	0
bin	6800	0
bin	7000	0
bin	7200	0
bin	7400	0
bin	7600	0
bin	7800	0
bin	8000	0
bin	8200	0
bin	8400	0
bin	8600	0
bin	8800	0
bin	9000	0
bin	9200	0
bin	9400	0
bin	9600	0
bin	9800	0
bin	10000	0
bin	10200	0
bin	10400	0
bin	10600	0
bin	10800	0
bin	11000	0
bin	11200	0
bin	11400	0
bin	11600	10
bin	11800	0
bin	12000	0
bin	12200	0
bin	12400	0
bin	12600	0
bin	12800	0
bin	13000	0
bin	13200	0
bin	13400	0
bin	13600	0
bin	13800	0
bin	14000	0
bin	14200	0
bin	14400	0
statistic Lan80211.host[1].wlan[0].radio packetErrorRate:histogram
field count 15
field mean 0
field stddev 0
field min 0
field max 0
field sum 0
field sqrsum 0
attr source packetErrorRate(packetSentToUpper)
attr title "Packet error rate, histogram"
bin	-inf	0
bin	-0.5	0
bin	-0.48	0
bin	-0.46	0
bin	-0.44	0
bin	-0.42	0
bin	-0.4	0
bin	-0.38	0
bin	-0.36	0
bin	-0.34	0
bin	-0.32	0
bin	-0.3	0
bin	-0.28	0
bin	-0.26	0
bin	-0.24	0
bin	-0.22	0
bin	-0.2	0
bin	-0.18	0
bin	-0.16	0
bin	-0.14	0
bin	-0.12	0
bin	-0.1	0
bin	-0.08	0
bin	-0.06	0
bin	-0.04	0
bin	-0.02	0
bin	0	15
bin	0.02	0
bin	0.04	0
bin	0.06	0
bin	0.08	0
bin	0.1	0
bin	0.12	0
bin	0.14	0
bin	0.16	0
bin	0.18	0
bin	0.2	0
bin	0.22	0
bin	0.24	0
bin	0.26	0
bin	0.28	0
bin	0.3	0
bin	0.32	0
bin	0.34	0
bin	0.36	0
bin	0.38	0
bin	0.4	0
bin	0.42	0
bin	0.44	0
bin	0.46	0
bin	0.48	0
bin	0.5	0
statistic Lan80211.host[1].wlan[0].radio bitErrorRate:histogram
field count 0
field mean -nan
field stddev nan
field min nan
field max nan
field sum 0
field sqrsum 0
attr source bitErrorRate(packetSentToUpper)
attr title "Bit error rate, histogram"
bin	-inf	0
bin	0	0
bin	1	0
statistic Lan80211.host[1].wlan[0].radio symbolErrorRate:histogram
field count 0
field mean -nan
field stddev nan
field min nan
field max nan
field sum 0
field sqrsum 0
attr source symbolErrorRate(packetSentToUpper)
attr title "Symbol error rate, histogram"
bin	-inf	0
bin	0	0
bin	1	0
scalar Lan80211.host[1].ipv4.ip packetDropAddressResolutionFailed:count 0
attr interpolationmode none
attr source packetDropReasonIsAddressResolutionFailed(packetDropped)
attr title "packet drop: address resolution failed, count"
scalar Lan80211.host[1].ipv4.ip packetDropAddressResolutionFailed:sum(packetBytes) 0
attr interpolationmode none
attr source packetDropReasonIsAddressResolutionFailed(packetDropped)
attr title "packet drop: address resolution failed, sum(packetBytes)"
scalar Lan80211.host[1].ipv4.ip packetDropHopLimitReached:count 0
attr interpolationmode none
attr source packetDropReasonIsHopLimitReached(packetDropped)
attr title "packet drop: hop limit reached, count"
scalar Lan80211.host[1].ipv4.ip packetDropHopLimitReached:sum(packetBytes) 0
attr interpolationmode none
attr source packetDropReasonIsHopLimitReached(packetDropped)
attr title "packet drop: hop limit reached, sum(packetBytes)"
scalar Lan80211.host[1].ipv4.ip packetDropForwardingDisabled:count 0
attr interpolationmode none
attr source packetDropReasonIsForwardingDisabled(packetDropped)
attr title "packet drop: forwarding disabled, count"
scalar Lan80211.host[1].ipv4.ip packetDropForwardingDisabled:sum(packetBytes) 0
attr interpolationmode none
attr source packetDropReasonIsForwardingDisabled(packetDropped)
attr title "packet drop: forwarding disabled, sum(packetBytes)"
scalar Lan80211.host[1].ipv4.ip packetDropNoInterfaceFound:count 0
attr interpolationmode none
attr source packetDropReasonIsNoInterfaceFound(packetDropped)
attr title "packet drop: no interface found, count"
scalar Lan80211.host[1].ipv4.ip packetDropNoInterfaceFound:sum(packetBytes) 0
attr interpolationmode none
attr source packetDropReasonIsNoInterfaceFound(packetDropped)
attr title "packet drop: no interface found, sum(packetBytes)"
scalar Lan80211.host[1].ipv4.ip packetDropNoRouteFound:count 0
attr interpolationmode none
attr source packetDropReasonIsNoRouteFound(packetDropped)
attr title "packet drop: no route found, count"
scalar Lan80211.host[1].ipv4.ip packetDropNoRouteFound:sum(packetBytes) 0
attr interpolationmode none
attr source packetDropReasonIsNoRouteFound(packetDropped)
attr title "packet drop: no route found, sum(packetBytes)"
scalar Lan80211.host[1].ipv4.ip packetDropUndefined:count 0
attr interpolationmode none
attr source packetDropReasonIsUndefined(packetDropped)
attr title "packet drop: undefined, count"
scalar Lan80211.host[1].ipv4.ip packetDropUndefined:sum(packetBytes) 0
attr interpolationmode none
attr source packetDropReasonIsUndefined(packetDropped)
attr title "packet drop: undefined, sum(packetBytes)"
scalar Lan80211.host[1].ipv4.arp arpResolutionFailed:count 0
attr title "ARP failed resolutions, count"
scalar Lan80211.host[1].ipv4.arp arpResolutionCompleted:count 1
attr title "ARP completed resolutions, count"
scalar Lan80211.host[1].ipv4.arp arpResolutionInitiated:count 1
attr title "ARP initiated resolutions, count"
scalar Lan80211.host[1].ipv4.arp arpReplySent:count 0
attr source arpReplySent
attr title "ARP replies sent, count"
scalar Lan80211.host[1].ipv4.arp arpReplySent:sum(packetBytes) 0
attr source arpReplySent
attr title "ARP replies sent, sum(packetBytes)"
scalar Lan80211.host[1].ipv4.arp arpRequestSent:count 1
attr source arpRequestSent
attr title "ARP request sent, count"
scalar Lan80211.host[1].ipv4.arp arpRequestSent:sum(packetBytes) 28
attr source arpRequestSent
attr title "ARP request sent, sum(packetBytes)"
scalar Lan80211.host[1].udp packetReceived:count 0
attr interpolationmode none
attr source packetReceived
attr title "packets received, count"
scalar Lan80211.host[1].udp packetReceived:sum(packetBytes) 0
attr interpolationmode none
attr source packetReceived
attr title "packets received, sum(packetBytes)"
scalar Lan80211.host[1].udp packetSent:count 1
attr interpolationmode none
attr source packetSent
attr title "packets sent, count"
scalar Lan80211.host[1].udp packetSent:sum(packetBytes) 9
attr interpolationmode none
attr source packetSent
attr title "packets sent, sum(packetBytes)"
scalar Lan80211.host[1].udp passedUpPk:count 0
attr interpolationmode none
attr source packetSentToUpper
attr title "packets passed up, count"
scalar Lan80211.host[1].udp droppedPkWrongPort:count 0
attr interpolationmode none
attr source packetDropReasonIsNoPortFound(packetDropped)
attr title "packets dropped (wrong port), count"
scalar Lan80211.host[1].udp droppedPkBadChecksum:count 0
attr interpolationmode none
attr source packetDropReasonIsIncorrectlyReceived(packetDropped)
attr title "packets dropped (checksum error), count"
scalar Lan80211.host[1].app[0] packetReceived:count 0
attr interpolationmode none
attr source packetReceived
attr title "packets received, count"
scalar Lan80211.host[1].app[0] packetReceived:sum(packetBytes) 0
attr interpolationmode none
attr source packetReceived
attr title "packets received, sum(packetBytes)"
statistic Lan80211.host[1].app[0] endToEndDelay:histogram
field count 0
field mean -nan
field stddev nan
field min nan
field max nan
field sum 0
field sqrsum 0
attr interpolationmode none
attr source dataAge(packetReceived)
attr title "end-to-end delay, histogram"
attr unit s
bin	-inf	0
bin	0	0
bin	1	0
scalar Lan80211.host[2].lo[0].lo rcvdPkFromHl:count 0
attr interpolationmode none
attr source packetReceivedFromUpper
attr title "packets received from higher layer, count"
scalar Lan80211.host[2].lo[0].lo rcvdPkFromHl:sum(packetBytes) 0
attr interpolationmode none
attr source packetReceivedFromUpper
attr title "packets received from higher layer, sum(packetBytes)"
scalar Lan80211.host[2].lo[0].lo passedUpPk:count 0
attr interpolationmode none
attr source packetSentToUpper
attr title "packets passed to higher layer, count"
scalar Lan80211.host[2].lo[0].lo passedUpPk:sum(packetBytes) 0
attr interpolationmode none
attr source packetSentToUpper
attr title "packets passed to higher layer, sum(packetBytes)"
scalar Lan80211.host[2].wlan[0].mac.dcf.channelAccess.pendingQueue packetPopped:count 2
attr interpolationmode none
attr title "packet popped, count"
scalar Lan80211.host[2].wlan[0].mac.dcf.channelAccess.pendingQueue packetPopped:sum(packetBytes) 129
attr interpolationmode none
attr title "packet popped, sum(packetBytes)"
statistic Lan80211.host[2].wlan[0].mac.dcf.channelAccess.pendingQueue queueingTime:histogram
field count 2
field mean 0.0006074806465
field stddev 0.00042352959194856
field min 0.000308
field max 0.000906961293
field sum 0.001214961293
field sqrsum 9.1744278700023e-07
attr interpolationmode none
attr source queueingTime(packetPopped)
attr title "queueing times, histogram"
attr unit s
bin	-inf	0
bin	0.00015	0
bin	0.00016	0
bin	0.00017	0
bin	0.00018	0
bin	0.00019	0
bin	0.0002	0
bin	0.00021	0
bin	0.00022	0
bin	0.00023	0
bin	0.00024	0
bin	0.00025	0
bin	0.00026	0
bin	0.00027	0
bin	0.00028	0
bin	0.00029	0
bin	0.0003	1
bin	0.00031	0
bin	0.00032	0
bin	0.00033	0
bin	0.00034	0
bin	0.00035	0
bin	0.00036	0
bin	0.00037	0
bin	0.00038	0
bin	0.00039	0
bin	0.0004	0
bin	0.00041	0
bin	0.00042	0
bin	0.00043	0
bin	0.00044	0
bin	0.00045	0
bin	0.00046	0
bin	0.00047	0
bin	0.00048	0
bin	0.00049	0
bin	0.0005	0
bin	0.00051	0
bin	0.00052	0
bin	0.00053	0
bin	0.00054	0
bin	0.00055	0
bin	0.00056	0
bin	0.00057	0
bin	0.00058	0
bin	0.00059	0
bin	0.0006	0
bin	0.00061	0
bin	0.00062	0
bin	0.00063	0
bin	0.00064	0
bin	0.00065	0
bin	0.00066	0
bin	0.00067	0
bin	0.00068	0
bin	0.00069	0
bin	0.0007	0
bin	0.00071	0
bin	0.00072	0
bin	0.00073	0
bin	0.00074	0
bin	0.00075	0
bin	0.00076	0
bin	0.00077	0
bin	0.00078	0
bin	0.00079	0
bin	0.0008	0
bin	0.00081	0
bin	0.00082	0
bin	0.00083	0
bin	0.00084	0
bin	0.00085	0
bin	0.00086	0
bin	0.00087	0
bin	0.00088	0
bin	0.00089	0
bin	0.0009	1
bin	0.00091	0
bin	0.00092	0
bin	0.00093	0
bin	0.00094	0
bin	0.00095	0
bin	0.00096	0
bin	0.00097	0
bin	0.00098	0
bin	0.00099	0
bin	0.001	0
bin	0.00101	0
bin	0.00102	0
bin	0.00103	0
bin	0.00104	0
bin	0.00105	0
bin	0.00106	0
scalar Lan80211.host[2].wlan[0].mac.dcf.channelAccess.pendingQueue queueLength:max 1
attr interpolationmode sample-hold
attr source "count(packetPushed) - count(packetPopped) - count(packetRemoved) - count(packetDropped)"
attr title "queue length, max"
scalar Lan80211.host[2].wlan[0].mac.dcf.channelAccess.pendingQueue queueLength:timeavg 0.1312388306742
attr interpolationmode sample-hold
attr source "count(packetPushed) - count(packetPopped) - count(packetRemoved) - count(packetDropped)"
attr title "queue length, timeavg"
scalar Lan80211.host[2].wlan[0].mac.dcf.channelAccess.pendingQueue packetPushed:count 2
attr interpolationmode none
attr title "packet pushed, count"
scalar Lan80211.host[2].wlan[0].mac.dcf.channelAccess.pendingQueue packetPushed:sum(packetBytes) 129
attr interpolationmode none
attr title "packet pushed, sum(packetBytes)"
scalar Lan80211.host[2].wlan[0].mac.dcf.channelAccess.pendingQueue packetDropQueueOverflow:count 0
attr interpolationmode none
attr source packetDropReasonIsQueueOverflow(packetDropped)
attr title "packet drops: queue overflow, count"
scalar Lan80211.host[2].wlan[0].mac.dcf.channelAccess.pendingQueue packetDropQueueOverflow:sum(packetBytes) 0
attr interpolationmode none
attr source packetDropReasonIsQueueOverflow(packetDropped)
attr title "packet drops: queue overflow, sum(packetBytes)"
scalar Lan80211.host[2].wlan[0].mac.dcf.channelAccess.pendingQueue packetRemoved:count 0
attr interpolationmode none
attr title "packets removed, count"
scalar Lan80211.host[2].wlan[0].mac.dcf.channelAccess.pendingQueue packetRemoved:sum(packetBytes) 0
attr interpolationmode none
attr title "packets removed, sum(packetBytes)"
statistic Lan80211.host[2].wlan[0].mac.dcf.channelAccess.inProgressFrames queueingTime:histogram
field count 2
field mean 0.000709062444
field stddev 2.8284964211997e-06
field min 0.000707062395
field max 0.000711062493
field sum 0.001418124888
field sqrsum 1.0055470993745e-06
attr interpolationmode none
attr source queueingTime(packetDequeued)
attr title "queueing times, histogram"
bin	-inf	0
bin	0.000706	0
bin	0.0007061	0
bin	0.0007062	0
bin	0.0007063	0
bin	0.0007064	0
bin	0.0007065	0
bin	0.0007066	0
bin	0.0007067	0
bin	0.0007068	0
bin	0.0007069	0
bin	0.000707	1
bin	0.0007071	0
bin	0.0007072	0
bin	0.0007073	0
bin	0.0007074	0
bin	0.0007075	0
bin	0.0007076	0
bin	0.0007077	0
bin	0.0007078	0
bin	0.0007079	0
bin	0.000708	0
bin	0.0007081	0
bin	0.0007082	0
bin	0.0007083	0
bin	0.0007084	0
bin	0.0007085	0
bin	0.0007086	0
bin	0.0007087	0
bin	0.0007088	0
bin	0.0007089	0
bin	0.000709	0
bin	0.0007091	0
bin	0.0007092	0
bin	0.0007093	0
bin	0.0007094	0
bin	0.0007095	0
bin	0.0007096	0
bin	0.0007097	0
bin	0.0007098	0
bin	0.0007099	0
bin	0.00071	0
bin	0.0007101	0
bin	0.0007102	0
bin	0.0007103	0
bin	0.0007104	0
bin	0.0007105	0
bin	0.0007106	0
bin	0.0007107	0
bin	0.0007108	0
bin	0.0007109	0
bin	0.000711	1
bin	0.0007111	0
bin	0.0007112	0
bin	0.0007113	0
bin	0.0007114	0
bin	0.0007115	0
bin	0.0007116	0
bin	0.0007117	0
bin	0.0007118	0
bin	0.0007119	0
bin	0.000712	0
bin	0.0007121	0
scalar Lan80211.host[2].wlan[0].mac.dcf.channelAccess.inProgressFrames queueLength:max 1
attr interpolationmode sample-hold
attr source "count(packetEnqueued) - count(packetDequeued)"
attr title "queue length, max"
scalar Lan80211.host[2].wlan[0].mac.dcf.channelAccess.inProgressFrames queueLength:timeavg 0.16982159851226
attr interpolationmode sample-hold
attr source "count(packetEnqueued) - count(packetDequeued)"
attr title "queue length, timeavg"
scalar Lan80211.host[2].wlan[0].mac.dcf.channelAccess.contention channelAccessGranted:count 2
attr title "channel access granted, count"
scalar Lan80211.host[2].wlan[0].mac.dcf.channelAccess.contention stateChanged:count 80
attr interpolationmode none
attr title "contention state changed, count"
scalar Lan80211.host[2].wlan[0].mac.dcf.channelAccess channelOwnershipChanged:count 4
attr interpolationmode sample-hold
attr title "channel ownership, count"
scalar Lan80211.host[2].wlan[0].mac.dcf.originatorMacDataService packetAggregated:count 0
attr title "packets aggregated, count"
scalar Lan80211.host[2].wlan[0].mac.dcf.originatorMacDataService packetFragmented:count 0
attr title "packets fragmented, count"
scalar Lan80211.host[2].wlan[0].mac.dcf.recipientMacDataService packetDeaggregated:count 0
attr title "packets deaggregated, count"
scalar Lan80211.host[2].wlan[0].mac.dcf.recipientMacDataService packetDefragmented:count 2
attr title "packets defragmented, count"
scalar Lan80211.host[2].wlan[0].mac.dcf.recipientMacDataService packetDropDuplicateDetected:count 0
attr interpolationmode none
attr source packetDropReasonIsDuplicateDetected(packetDropped)
attr title "packet drops: duplicate detected, count"
scalar Lan80211.host[2].wlan[0].mac.dcf.recipientMacDataService packetDropDuplicateDetected:sum(packetBytes) 0
attr interpolationmode none
attr source packetDropReasonIsDuplicateDetected(packetDropped)
attr title "packet drops: duplicate detected, sum(packetBytes)"
scalar Lan80211.host[2].wlan[0].mac.dcf.recoveryProcedure retryLimitReached:count 0
attr title "retry limit reached, count"
scalar Lan80211.host[2].wlan[0].mac.dcf frameSequenceFinished:count 2
attr title "finished frame sequences, count"
statistic Lan80211.host[2].wlan[0].mac.dcf frameSequenceDuration:histogram
field count 2
field mean 0.000709062444
field stddev 2.8284964211997e-06
field min 0.000707062395
field max 0.000711062493
field sum 0.001418124888
field sqrsum 1.0055470993745e-06
attr source frameSequenceDuration(frameSequenceFinished)
attr title "frame sequence durations, histogram"
bin	-inf	0
bin	0.000706	0
bin	0.0007061	0
bin	0.0007062	0
bin	0.0007063	0
bin	0.0007064	0
bin	0.0007065	0
bin	0.0007066	0
bin	0.0007067	0
bin	0.0007068	0
bin	0.0007069	0
bin	0.000707	1
bin	0.0007071	0
bin	0.0007072	0
bin	0.0007073	0
bin	0.0007074	0
bin	0.0007075	0
bin	0.0007076	0
bin	0.0007077	0
bin	0.0007078	0
bin	0.0007079	0
bin	0.000708	0
bin	0.0007081	0
bin	0.0007082	0
bin	0.0007083	0
bin	0.0007084	0
bin	0.0007085	0
bin	0.0007086	0
bin	0.0007087	0
bin	0.0007088	0
bin	0.0007089	0
bin	0.000709	0
bin	0.0007091	0
bin	0.0007092	0
bin	0.0007093	0
bin	0.0007094	0
bin	0.0007095	0
bin	0.0007096	0
bin	0.0007097	0
bin	0.0007098	0
bin	0.0007099	0
bin	0.00071	0
bin	0.0007101	0
bin	0.0007102	0
bin	0.0007103	0
bin	0.0007104	0
bin	0.0007105	0
bin	0.0007106	0
bin	0.0007107	0
bin	0.0007108	0
bin	0.0007109	0
bin	0.000711	1
bin	0.0007111	0
bin	0.0007112	0
bin	0.0007113	0
bin	0.0007114	0
bin	0.0007115	0
bin	0.0007116	0
bin	0.0007117	0
bin	0.0007118	0
bin	0.0007119	0
bin	0.000712	0
bin	0.0007121	0
statistic Lan80211.host[2].wlan[0].mac.dcf frameSequenceNumPackets:histogram
field count 2
field mean 2
field stddev 0
field min 2
field max 2
field sum 4
field sqrsum 8
attr source frameSequenceNumPackets(frameSequenceFinished)
attr title "frame sequences: number of packets, histogram"
bin	-inf	0
bin	1	0
bin	2	2
bin	3	0
scalar Lan80211.host[2].wlan[0].mac.dcf packetReceivedFromPeer:count 4
attr interpolationmode none
attr title "packets received, count"
scalar Lan80211.host[2].wlan[0].mac.dcf packetReceivedFromPeer:sum(packetBytes) 156
attr interpolationmode none
attr title "packets received, sum(packetBytes)"
scalar Lan80211.host[2].wlan[0].mac.dcf packetReceivedFromPeerUnicast:count 3
attr interpolationmode none
attr source ieee80211Unicast(packetReceivedFromPeer)
attr title "packets received: unicast, count"
scalar Lan80211.host[2].wlan[0].mac.dcf packetReceivedFromPeerUnicast:sum(packetBytes) 92
attr interpolationmode none
attr source ieee80211Unicast(packetReceivedFromPeer)
attr title "packets received: unicast, sum(packetBytes)"
scalar Lan80211.host[2].wlan[0].mac.dcf packetReceivedFromPeerMulticast:count 1
attr interpolationmode none
attr source ieee80211Multicast(packetReceivedFromPeer)
attr title "packets received: multicast, count"
scalar Lan80211.host[2].wlan[0].mac.dcf packetReceivedFromPeerMulticast:sum(packetBytes) 64
attr interpolationmode none
attr source ieee80211Multicast(packetReceivedFromPeer)
attr title "packets received: multicast, sum(packetBytes)"
scalar Lan80211.host[2].wlan[0].mac.dcf packetReceivedFromPeerBroadcast:count 1
attr interpolationmode none
attr source ieee80211Broadcast(packetReceivedFromPeer)
attr title "packets received: broadcast, count"
scalar Lan80211.host[2].wlan[0].mac.dcf packetReceivedFromPeerBroadcast:sum(packetBytes) 64
attr interpolationmode none
attr source ieee80211Broadcast(packetReceivedFromPeer)
attr title "packets received: broadcast, sum(packetBytes)"
scalar Lan80211.host[2].wlan[0].mac.dcf packetReceivedFromPeerWithRetry:count 1
attr interpolationmode none
attr source ieee80211Retry(packetReceivedFromPeer)
attr title "packets received: with retry, count"
scalar Lan80211.host[2].wlan[0].mac.dcf packetReceivedFromPeerWithRetry:sum(packetBytes) 64
attr interpolationmode none
attr source ieee80211Retry(packetReceivedFromPeer)
attr title "packets received: with retry, sum(packetBytes)"
scalar Lan80211.host[2].wlan[0].mac.dcf packetReceivedFromPeerWithoutRetry:count 3
attr interpolationmode none
attr source ieee80211NotRetry(packetReceivedFromPeer)
attr title "packets received: without retry, count"
scalar Lan80211.host[2].wlan[0].mac.dcf packetReceivedFromPeerWithoutRetry:sum(packetBytes) 92
attr interpolationmode none
attr source ieee80211NotRetry(packetReceivedFromPeer)
attr title "packets received: without retry, sum(packetBytes)"
scalar Lan80211.host[2].wlan[0].mac.dcf packetSentToPeer:count 3
attr interpolationmode none
attr title "packets sent, count"
scalar Lan80211.host[2].wlan[0].mac.dcf packetSentToPeer:sum(packetBytes) 143
attr interpolationmode none
attr title "packets sent, sum(packetBytes)"
scalar Lan80211.host[2].wlan[0].mac.dcf packetSentToPeerUnicast:count 3
attr interpolationmode none
attr source ieee80211Unicast(packetSentToPeer)
attr title "packets sent: unicast, count"
scalar Lan80211.host[2].wlan[0].mac.dcf packetSentToPeerUnicast:sum(packetBytes) 143
attr interpolationmode none
attr source ieee80211Unicast(packetSentToPeer)
attr title "packets sent: unicast, sum(packetBytes)"
scalar Lan80211.host[2].wlan[0].mac.dcf packetSentToPeerMulticast:count 0
attr interpolationmode none
attr source ieee80211Multicast(packetSentToPeer)
attr title "packets sent: multicast, count"
scalar Lan80211.host[2].wlan[0].mac.dcf packetSentToPeerMulticast:sum(packetBytes) 0
attr interpolationmode none
attr source ieee80211Multicast(packetSentToPeer)
attr title "packets sent: multicast, sum(packetBytes)"
scalar Lan80211.host[2].wlan[0].mac.dcf packetSentToPeerBroadcast:count 0
attr interpolationmode none
attr source ieee80211Broadcast(packetSentToPeer)
attr title "packets sent: broadcast , count"
scalar Lan80211.host[2].wlan[0].mac.dcf packetSentToPeerBroadcast:sum(packetBytes) 0
attr interpolationmode none
attr source ieee80211Broadcast(packetSentToPeer)
attr title "packets sent: broadcast , sum(packetBytes)"
scalar Lan80211.host[2].wlan[0].mac.dcf packetSentToPeerWithRetry:count 0
attr interpolationmode none
attr source ieee80211Retry(packetSentToPeer)
attr title "packets sent: with retry, count"
scalar Lan80211.host[2].wlan[0].mac.dcf packetSentToPeerWithRetry:sum(packetBytes) 0
attr interpolationmode none
attr source ieee80211Retry(packetSentToPeer)
attr title "packets sent: with retry, sum(packetBytes)"
scalar Lan80211.host[2].wlan[0].mac.dcf packetSentToPeerWithoutRetry:count 3
attr interpolationmode none
attr source ieee80211NotRetry(packetSentToPeer)
attr title "packets sent: without retry, count"
scalar Lan80211.host[2].wlan[0].mac.dcf packetSentToPeerWithoutRetry:sum(packetBytes) 143
attr interpolationmode none
attr source ieee80211NotRetry(packetSentToPeer)
attr title "packets sent: without retry, sum(packetBytes)"
scalar Lan80211.host[2].wlan[0].mac.dcf packetDrop:count 9
attr interpolationmode none
attr source packetDropped
attr title "packet drops, count"
scalar Lan80211.host[2].wlan[0].mac.dcf packetDrop:sum(packetBytes) 376
attr interpolationmode none
attr source packetDropped
attr title "packet drops, sum(packetBytes)"
scalar Lan80211.host[2].wlan[0].mac.dcf packetDropNotAddressedToUs:count 9
attr interpolationmode none
attr source packetDropReasonIsNotAddressedToUs(packetDropped)
attr title "packet drops: not addressed to us, count"
scalar Lan80211.host[2].wlan[0].mac.dcf packetDropNotAddressedToUs:sum(packetBytes) 376
attr interpolationmode none
attr source packetDropReasonIsNotAddressedToUs(packetDropped)
attr title "packet drops: not addressed to us, sum(packetBytes)"
scalar Lan80211.host[2].wlan[0].mac.dcf packetDropQueueOverflow:count 0
attr interpolationmode none
attr source packetDropReasonIsQueueOverflow(packetDropped)
attr title "packet drops: queue overflow, count"
scalar Lan80211.host[2].wlan[0].mac.dcf packetDropQueueOverflow:sum(packetBytes) 0
attr interpolationmode none
attr source packetDropReasonIsQueueOverflow(packetDropped)
attr title "packet drops: queue overflow, sum(packetBytes)"
scalar Lan80211.host[2].wlan[0].mac.dcf packetDropRetryLimitReached:count 0
attr interpolationmode none
attr source packetDropReasonIsRetryLimitReached(packetDropped)
attr title "packet drops: retry limit reached, count"
scalar Lan80211.host[2].wlan[0].mac.dcf packetDropRetryLimitReached:sum(packetBytes) 0
attr interpolationmode none
attr source packetDropReasonIsRetryLimitReached(packetDropped)
attr title "packet drops: retry limit reached, sum(packetBytes)"
scalar Lan80211.host[2].wlan[0].mac.dcf linkBroken:count 0
attr interpolationmode none
attr title "link breaks, count"
scalar Lan80211.host[2].wlan[0].mac packetReceivedFromLower:count 15
attr interpolationmode none
attr title "packets received from lower layer, count"
scalar Lan80211.host[2].wlan[0].mac packetReceivedFromLower:sum(packetBytes) 662
attr interpolationmode none
attr title "packets received from lower layer, sum(packetBytes)"
scalar Lan80211.host[2].wlan[0].mac packetSentToLower:count 3
attr interpolationmode none
attr title "packets sent to lower layer, count"
scalar Lan80211.host[2].wlan[0].mac packetSentToLower:sum(packetBytes) 143
attr interpolationmode none
attr title "packets sent to lower layer, sum(packetBytes)"
scalar Lan80211.host[2].wlan[0].mac packetReceivedFromUpper:count 2
attr interpolationmode none
attr title "packets received from upper layer, count"
scalar Lan80211.host[2].wlan[0].mac packetReceivedFromUpper:sum(packetBytes) 73
attr interpolationmode none
attr title "packets received from upper layer, sum(packetBytes)"
scalar Lan80211.host[2].wlan[0].mac packetSentToUpper:count 2
attr interpolationmode none
attr title "packets sent to upper layer, count"
scalar Lan80211.host[2].wlan[0].mac packetSentToUpper:sum(packetBytes) 72
attr interpolationmode none
attr title "packets sent to upper layer, sum(packetBytes)"
scalar Lan80211.host[2].wlan[0].mac packetDrop:count 11
attr interpolationmode none
attr source packetDropped
attr title "packet drops, count"
scalar Lan80211.host[2].wlan[0].mac packetDrop:sum(packetBytes) 506
attr interpolationmode none
attr source packetDropped
attr title "packet drops, sum(packetBytes)"
scalar Lan80211.host[2].wlan[0].mac packetDropIncorrectlyReceived:count 2
attr interpolationmode none
attr source packetDropReasonIsIncorrectlyReceived(packetDropped)
attr title "packet drops: incorrectly received, count"
scalar Lan80211.host[2].wlan[0].mac packetDropIncorrectlyReceived:sum(packetBytes) 130
attr interpolationmode none
attr source packetDropReasonIsIncorrectlyReceived(packetDropped)
attr title "packet drops: incorrectly received, sum(packetBytes)"
scalar Lan80211.host[2].wlan[0].mac packetDropNotAddressedToUs:count 9
attr interpolationmode none
attr source packetDropReasonIsNotAddressedToUs(packetDropped)
attr title "packet drops: not addressed to us, count"
scalar Lan80211.host[2].wlan[0].mac packetDropNotAddressedToUs:sum(packetBytes) 376
attr interpolationmode none
attr source packetDropReasonIsNotAddressedToUs(packetDropped)
attr title "packet drops: not addressed to us, sum(packetBytes)"
scalar Lan80211.host[2].wlan[0].mac packetDropQueueOverflow:count 0
attr interpolationmode none
attr source packetDropReasonIsQueueOverflow(packetDropped)
attr title "packet drops: queue overflow, count"
scalar Lan80211.host[2].wlan[0].mac packetDropQueueOverflow:sum(packetBytes) 0
attr interpolationmode none
attr source packetDropReasonIsQueueOverflow(packetDropped)
[...]
attr interpolationmode none
attr title "packets removed, count"
scalar Lan80211.ap.wlan[0].mac.dcf.channelAccess.pendingQueue packetRemoved:sum(packetBytes) 0
attr interpolationmode none
attr title "packets removed, sum(packetBytes)"
statistic Lan80211.ap.wlan[0].mac.dcf.channelAccess.inProgressFrames queueingTime:histogram
field count 4
field mean 0.001145196201
field stddev 0.00087987229761203
field min 0.000448
field max 0.002419923642
field sum 0.004580784804
field sqrsum 7.5684231354545e-06
attr interpolationmode none
attr source queueingTime(packetDequeued)
attr title "queueing times, histogram"
bin	-inf	0
bin	0	0
bin	5e-05	0
bin	0.0001	0
bin	0.00015	0
bin	0.0002	0
bin	0.00025	0
bin	0.0003	0
bin	0.00035	0
bin	0.0004	1
bin	0.00045	0
bin	0.0005	0
bin	0.00055	0
bin	0.0006	0
bin	0.00065	0
bin	0.0007	1
bin	0.00075	0
bin	0.0008	0
bin	0.00085	0
bin	0.0009	0
bin	0.00095	0
bin	0.001	1
bin	0.00105	0
bin	0.0011	0
bin	0.00115	0
bin	0.0012	0
bin	0.00125	0
bin	0.0013	0
bin	0.00135	0
bin	0.0014	0
bin	0.00145	0
bin	0.0015	0
bin	0.00155	0
bin	0.0016	0
bin	0.00165	0
bin	0.0017	0
bin	0.00175	0
bin	0.0018	0
bin	0.00185	0
bin	0.0019	0
bin	0.00195	0
bin	0.002	0
bin	0.00205	0
bin	0.0021	0
bin	0.00215	0
bin	0.0022	0
bin	0.00225	0
bin	0.0023	0
bin	0.00235	0
bin	0.0024	1
bin	0.00245	0
bin	0.0025	0
bin	0.00255	0
bin	0.0026	0
bin	0.00265	0
bin	0.0027	0
bin	0.00275	0
bin	0.0028	0
bin	0.00285	0
bin	0.0029	0
bin	0.00295	0
scalar Lan80211.ap.wlan[0].mac.dcf.channelAccess.inProgressFrames queueLength:max 2
attr interpolationmode sample-hold
attr source "count(packetEnqueued) - count(packetDequeued)"
attr title "queue length, max"
scalar Lan80211.ap.wlan[0].mac.dcf.channelAccess.inProgressFrames queueLength:timeavg 0.79128532260764
attr interpolationmode sample-hold
attr source "count(packetEnqueued) - count(packetDequeued)"
attr title "queue length, timeavg"
scalar Lan80211.ap.wlan[0].mac.dcf.channelAccess.contention channelAccessGranted:count 7
attr title "channel access granted, count"
scalar Lan80211.ap.wlan[0].mac.dcf.channelAccess.contention stateChanged:count 96
attr interpolationmode none
attr title "contention state changed, count"
scalar Lan80211.ap.wlan[0].mac.dcf.channelAccess channelOwnershipChanged:count 13
attr interpolationmode sample-hold
attr title "channel ownership, count"
scalar Lan80211.ap.wlan[0].mac.dcf.originatorMacDataService packetAggregated:count 0
attr title "packets aggregated, count"
scalar Lan80211.ap.wlan[0].mac.dcf.originatorMacDataService packetFragmented:count 0
attr title "packets fragmented, count"
scalar Lan80211.ap.wlan[0].mac.dcf.recipientMacDataService packetDeaggregated:count 0
attr title "packets deaggregated, count"
scalar Lan80211.ap.wlan[0].mac.dcf.recipientMacDataService packetDefragmented:count 5
attr title "packets defragmented, count"
scalar Lan80211.ap.wlan[0].mac.dcf.recipientMacDataService packetDropDuplicateDetected:count 0
attr interpolationmode none
attr source packetDropReasonIsDuplicateDetected(packetDropped)
attr title "packet drops: duplicate detected, count"
scalar Lan80211.ap.wlan[0].mac.dcf.recipientMacDataService packetDropDuplicateDetected:sum(packetBytes) 0
attr interpolationmode none
attr source packetDropReasonIsDuplicateDetected(packetDropped)
attr title "packet drops: duplicate detected, sum(packetBytes)"
scalar Lan80211.ap.wlan[0].mac.dcf.recoveryProcedure retryLimitReached:count 0
attr title "retry limit reached, count"
scalar Lan80211.ap.wlan[0].mac.dcf frameSequenceFinished:count 6
attr title "finished frame sequences, count"
statistic Lan80211.ap.wlan[0].mac.dcf frameSequenceDuration:histogram
field count 6
field mean 0.00060898727366667
field stddev 0.00012568297899078
field min 0.000448
field max 0.00070706248
field sum 0.003653923642
field sqrsum 2.3041740529677e-06
attr source frameSequenceDuration(frameSequenceFinished)
attr title "frame sequence durations, histogram"
bin	-inf	0
bin	0.00038	0
bin	0.000385	0
bin	0.00039	0
bin	0.000395	0
bin	0.0004	0
bin	0.000405	0
bin	0.00041	0
bin	0.000415	0
bin	0.00042	0
bin	0.000425	0
bin	0.00043	0
bin	0.000435	0
bin	0.00044	0
bin	0.000445	2
bin	0.00045	0
bin	0.000455	0
bin	0.00046	0
bin	0.000465	0
bin	0.00047	0
bin	0.000475	0
bin	0.00048	0
bin	0.000485	0
bin	0.00049	0
bin	0.000495	0
bin	0.0005	0
bin	0.000505	0
bin	0.00051	0
bin	0.000515	0
bin	0.00052	0
bin	0.000525	0
bin	0.00053	0
bin	0.000535	0
bin	0.00054	0
bin	0.000545	0
bin	0.00055	0
bin	0.000555	0
bin	0.00056	0
bin	0.000565	0
bin	0.00057	0
bin	0.000575	0
bin	0.00058	0
bin	0.000585	0
bin	0.00059	0
bin	0.000595	0
bin	0.0006	0
bin	0.000605	0
bin	0.00061	0
bin	0.000615	0
bin	0.00062	0
bin	0.000625	0
bin	0.00063	0
bin	0.000635	0
bin	0.00064	0
bin	0.000645	0
bin	0.00065	0
bin	0.000655	0
bin	0.00066	0
bin	0.000665	1
bin	0.00067	1
bin	0.000675	0
bin	0.00068	0
bin	0.000685	0
bin	0.00069	0
bin	0.000695	0
bin	0.0007	0
bin	0.000705	2
bin	0.00071	0
bin	0.000715	0
bin	0.00072	0
bin	0.000725	0
bin	0.00073	0
bin	0.000735	0
bin	0.00074	0
bin	0.000745	0
bin	0.00075	0
bin	0.000755	0
bin	0.00076	0
bin	0.000765	0
bin	0.00077	0
bin	0.000775	0
statistic Lan80211.ap.wlan[0].mac.dcf frameSequenceNumPackets:histogram
field count 6
field mean 1.6666666666667
field stddev 0.51639777949432
field min 1
field max 2
field sum 10
field sqrsum 18
attr source frameSequenceNumPackets(frameSequenceFinished)
attr title "frame sequences: number of packets, histogram"
bin	-inf	0
bin	0	0
bin	1	2
bin	2	4
bin	3	0
scalar Lan80211.ap.wlan[0].mac.dcf packetReceivedFromPeer:count 7
attr interpolationmode none
attr title "packets received, count"
scalar Lan80211.ap.wlan[0].mac.dcf packetReceivedFromPeer:sum(packetBytes) 349
attr interpolationmode none
attr title "packets received, sum(packetBytes)"
scalar Lan80211.ap.wlan[0].mac.dcf packetReceivedFromPeerUnicast:count 7
attr interpolationmode none
attr source ieee80211Unicast(packetReceivedFromPeer)
attr title "packets received: unicast, count"
scalar Lan80211.ap.wlan[0].mac.dcf packetReceivedFromPeerUnicast:sum(packetBytes) 349
attr interpolationmode none
attr source ieee80211Unicast(packetReceivedFromPeer)
attr title "packets received: unicast, sum(packetBytes)"
scalar Lan80211.ap.wlan[0].mac.dcf packetReceivedFromPeerMulticast:count 0
attr interpolationmode none
attr source ieee80211Multicast(packetReceivedFromPeer)
attr title "packets received: multicast, count"
scalar Lan80211.ap.wlan[0].mac.dcf packetReceivedFromPeerMulticast:sum(packetBytes) 0
attr interpolationmode none
attr source ieee80211Multicast(packetReceivedFromPeer)
attr title "packets received: multicast, sum(packetBytes)"
scalar Lan80211.ap.wlan[0].mac.dcf packetReceivedFromPeerBroadcast:count 0
attr interpolationmode none
attr source ieee80211Broadcast(packetReceivedFromPeer)
attr title "packets received: broadcast, count"
scalar Lan80211.ap.wlan[0].mac.dcf packetReceivedFromPeerBroadcast:sum(packetBytes) 0
attr interpolationmode none
attr source ieee80211Broadcast(packetReceivedFromPeer)
attr title "packets received: broadcast, sum(packetBytes)"
scalar Lan80211.ap.wlan[0].mac.dcf packetReceivedFromPeerWithRetry:count 0
attr interpolationmode none
attr source ieee80211Retry(packetReceivedFromPeer)
attr title "packets received: with retry, count"
scalar Lan80211.ap.wlan[0].mac.dcf packetReceivedFromPeerWithRetry:sum(packetBytes) 0
attr interpolationmode none
attr source ieee80211Retry(packetReceivedFromPeer)
attr title "packets received: with retry, sum(packetBytes)"
scalar Lan80211.ap.wlan[0].mac.dcf packetReceivedFromPeerWithoutRetry:count 7
attr interpolationmode none
attr source ieee80211NotRetry(packetReceivedFromPeer)
attr title "packets received: without retry, count"
scalar Lan80211.ap.wlan[0].mac.dcf packetReceivedFromPeerWithoutRetry:sum(packetBytes) 349
attr interpolationmode none
attr source ieee80211NotRetry(packetReceivedFromPeer)
attr title "packets received: without retry, sum(packetBytes)"
scalar Lan80211.ap.wlan[0].mac.dcf packetSentToPeer:count 12
attr interpolationmode none
attr title "packets sent, count"
scalar Lan80211.ap.wlan[0].mac.dcf packetSentToPeer:sum(packetBytes) 520
attr interpolationmode none
attr title "packets sent, sum(packetBytes)"
scalar Lan80211.ap.wlan[0].mac.dcf packetSentToPeerUnicast:count 10
attr interpolationmode none
attr source ieee80211Unicast(packetSentToPeer)
attr title "packets sent: unicast, count"
scalar Lan80211.ap.wlan[0].mac.dcf packetSentToPeerUnicast:sum(packetBytes) 392
attr interpolationmode none
attr source ieee80211Unicast(packetSentToPeer)
attr title "packets sent: unicast, sum(packetBytes)"
scalar Lan80211.ap.wlan[0].mac.dcf packetSentToPeerMulticast:count 2
attr interpolationmode none
attr source ieee80211Multicast(packetSentToPeer)
attr title "packets sent: multicast, count"
scalar Lan80211.ap.wlan[0].mac.dcf packetSentToPeerMulticast:sum(packetBytes) 128
attr interpolationmode none
attr source ieee80211Multicast(packetSentToPeer)
attr title "packets sent: multicast, sum(packetBytes)"
scalar Lan80211.ap.wlan[0].mac.dcf packetSentToPeerBroadcast:count 2
attr interpolationmode none
attr source ieee80211Broadcast(packetSentToPeer)
attr title "packets sent: broadcast , count"
scalar Lan80211.ap.wlan[0].mac.dcf packetSentToPeerBroadcast:sum(packetBytes) 128
attr interpolationmode none
attr source ieee80211Broadcast(packetSentToPeer)
attr title "packets sent: broadcast , sum(packetBytes)"
scalar Lan80211.ap.wlan[0].mac.dcf packetSentToPeerWithRetry:count 2
attr interpolationmode none
attr source ieee80211Retry(packetSentToPeer)
attr title "packets sent: with retry, count"
scalar Lan80211.ap.wlan[0].mac.dcf packetSentToPeerWithRetry:sum(packetBytes) 129
attr interpolationmode none
attr source ieee80211Retry(packetSentToPeer)
attr title "packets sent: with retry, sum(packetBytes)"
scalar Lan80211.ap.wlan[0].mac.dcf packetSentToPeerWithoutRetry:count 10
attr interpolationmode none
attr source ieee80211NotRetry(packetSentToPeer)
attr title "packets sent: without retry, count"
scalar Lan80211.ap.wlan[0].mac.dcf packetSentToPeerWithoutRetry:sum(packetBytes) 391
attr interpolationmode none
attr source ieee80211NotRetry(packetSentToPeer)
attr title "packets sent: without retry, sum(packetBytes)"
scalar Lan80211.ap.wlan[0].mac.dcf packetDrop:count 0
attr interpolationmode none
attr source packetDropped
attr title "packet drops, count"
scalar Lan80211.ap.wlan[0].mac.dcf packetDrop:sum(packetBytes) 0
attr interpolationmode none
attr source packetDropped
attr title "packet drops, sum(packetBytes)"
scalar Lan80211.ap.wlan[0].mac.dcf packetDropNotAddressedToUs:count 0
attr interpolationmode none
attr source packetDropReasonIsNotAddressedToUs(packetDropped)
attr title "packet drops: not addressed to us, count"
scalar Lan80211.ap.wlan[0].mac.dcf packetDropNotAddressedToUs:sum(packetBytes) 0
attr interpolationmode none
attr source packetDropReasonIsNotAddressedToUs(packetDropped)
attr title "packet drops: not addressed to us, sum(packetBytes)"
scalar Lan80211.ap.wlan[0].mac.dcf packetDropQueueOverflow:count 0
attr interpolationmode none
attr source packetDropReasonIsQueueOverflow(packetDropped)
attr title "packet drops: queue overflow, count"
scalar Lan80211.ap.wlan[0].mac.dcf packetDropQueueOverflow:sum(packetBytes) 0
attr interpolationmode none
attr source packetDropReasonIsQueueOverflow(packetDropped)
attr title "packet drops: queue overflow, sum(packetBytes)"
scalar Lan80211.ap.wlan[0].mac.dcf packetDropRetryLimitReached:count 0
attr interpolationmode none
attr source packetDropReasonIsRetryLimitReached(packetDropped)
attr title "packet drops: retry limit reached, count"
scalar Lan80211.ap.wlan[0].mac.dcf packetDropRetryLimitReached:sum(packetBytes) 0
attr interpolationmode none
attr source packetDropReasonIsRetryLimitReached(packetDropped)
attr title "packet drops: retry limit reached, sum(packetBytes)"
scalar Lan80211.ap.wlan[0].mac.dcf linkBroken:count 0
attr interpolationmode none
attr title "link breaks, count"
scalar Lan80211.ap.wlan[0].mac packetReceivedFromLower:count 7
attr interpolationmode none
attr title "packets received from lower layer, count"
scalar Lan80211.ap.wlan[0].mac packetReceivedFromLower:sum(packetBytes) 349
attr interpolationmode none
attr title "packets received from lower layer, sum(packetBytes)"
scalar Lan80211.ap.wlan[0].mac packetSentToLower:count 12
attr interpolationmode none
attr title "packets sent to lower layer, count"
scalar Lan80211.ap.wlan[0].mac packetSentToLower:sum(packetBytes) 520
attr interpolationmode none
attr title "packets sent to lower layer, sum(packetBytes)"
scalar Lan80211.ap.wlan[0].mac packetReceivedFromUpper:count 0
attr interpolationmode none
attr title "packets received from upper layer, count"
scalar Lan80211.ap.wlan[0].mac packetReceivedFromUpper:sum(packetBytes) 0
attr interpolationmode none
attr title "packets received from upper layer, sum(packetBytes)"
scalar Lan80211.ap.wlan[0].mac packetSentToUpper:count 2
attr interpolationmode none
attr title "packets sent to upper layer, count"
scalar Lan80211.ap.wlan[0].mac packetSentToUpper:sum(packetBytes) 72
attr interpolationmode none
attr title "packets sent to upper layer, sum(packetBytes)"
scalar Lan80211.ap.wlan[0].mac packetDrop:count 0
attr interpolationmode none
attr source packetDropped
attr title "packet drops, count"
scalar Lan80211.ap.wlan[0].mac packetDrop:sum(packetBytes) 0
attr interpolationmode none
attr source packetDropped
attr title "packet drops, sum(packetBytes)"
scalar Lan80211.ap.wlan[0].mac packetDropIncorrectlyReceived:count 0
attr interpolationmode none
attr source packetDropReasonIsIncorrectlyReceived(packetDropped)
attr title "packet drops: incorrectly received, count"
scalar Lan80211.ap.wlan[0].mac packetDropIncorrectlyReceived:sum(packetBytes) 0
attr interpolationmode none
attr source packetDropReasonIsIncorrectlyReceived(packetDropped)
attr title "packet drops: incorrectly received, sum(packetBytes)"
scalar Lan80211.ap.wlan[0].mac packetDropNotAddressedToUs:count 0
attr interpolationmode none
attr source packetDropReasonIsNotAddressedToUs(packetDropped)
attr title "packet drops: not addressed to us, count"
scalar Lan80211.ap.wlan[0].mac packetDropNotAddressedToUs:sum(packetBytes) 0
attr interpolationmode none
attr source packetDropReasonIsNotAddressedToUs(packetDropped)
attr title "packet drops: not addressed to us, sum(packetBytes)"
scalar Lan80211.ap.wlan[0].mac packetDropQueueOverflow:count 0
attr interpolationmode none
attr source packetDropReasonIsQueueOverflow(packetDropped)
attr title "packet drops: queue overflow, count"
scalar Lan80211.ap.wlan[0].mac packetDropQueueOverflow:sum(packetBytes) 0
attr interpolationmode none
attr source packetDropReasonIsQueueOverflow(packetDropped)
attr title "packet drops: queue overflow, sum(packetBytes)"
scalar Lan80211.ap.wlan[0].mac packetDropRetryLimitReached:count 0
attr interpolationmode none
attr source packetDropReasonIsRetryLimitReached(packetDropped)
attr title "packet drops: retry limit reached, count"
scalar Lan80211.ap.wlan[0].mac packetDropRetryLimitReached:sum(packetBytes) 0
attr interpolationmode none
attr source packetDropReasonIsRetryLimitReached(packetDropped)
attr title "packet drops: retry limit reached, sum(packetBytes)"
scalar Lan80211.ap.wlan[0].mac packetDropDuplicateDetected:count 0
attr interpolationmode none
attr source packetDropReasonIsDuplicateDetected(packetDropped)
attr title "packet drops: duplicate detected, count"
scalar Lan80211.ap.wlan[0].mac packetDropDuplicateDetected:sum(packetBytes) 0
attr interpolationmode none
attr source packetDropReasonIsDuplicateDetected(packetDropped)
attr title "packet drops: duplicate detected, sum(packetBytes)"
scalar Lan80211.ap.wlan[0].mac packetDropOther:count 0
attr interpolationmode none
attr source packetDropReasonIsOther(packetDropped)
attr title "packet drops: other, count"
scalar Lan80211.ap.wlan[0].mac packetDropOther:sum(packetBytes) 0
attr interpolationmode none
attr source packetDropReasonIsOther(packetDropped)
attr title "packet drops: other, sum(packetBytes)"
scalar Lan80211.ap.wlan[0].mac linkBroken:count 0
attr interpolationmode none
attr title "link breaks, count"
statistic Lan80211.ap.wlan[0].radio radioChannel:histogram
field count 1
field mean 0
field stddev -nan
field min 0
field max 0
field sum 0
field sqrsum 0
attr interpolationmode sample-hold
attr source radioChannelChanged
attr title "Radio channel, histogram"
bin	-inf	0
bin	-0.5	0
bin	-0.48	0
bin	-0.46	0
bin	-0.44	0
bin	-0.42	0
bin	-0.4	0
bin	-0.38	0
bin	-0.36	0
bin	-0.34	0
bin	-0.32	0
bin	-0.3	0
bin	-0.28	0
bin	-0.26	0
bin	-0.24	0
bin	-0.22	0
bin	-0.2	0
bin	-0.18	0
bin	-0.16	0
bin	-0.14	0
bin	-0.12	0
bin	-0.1	0
bin	-0.08	0
bin	-0.06	0
bin	-0.04	0
bin	-0.02	0
bin	0	1
bin	0.02	0
bin	0.04	0
bin	0.06	0
bin	0.08	0
bin	0.1	0
bin	0.12	0
bin	0.14	0
bin	0.16	0
bin	0.18	0
bin	0.2	0
bin	0.22	0
bin	0.24	0
bin	0.26	0
bin	0.28	0
bin	0.3	0
bin	0.32	0
bin	0.34	0
bin	0.36	0
bin	0.38	0
bin	0.4	0
bin	0.42	0
bin	0.44	0
bin	0.46	0
bin	0.48	0
bin	0.5	0
scalar Lan80211.ap.wlan[0].radio radioMode:count 27
attr interpolationmode sample-hold
attr source radioModeChanged
attr title "Radio mode, count"
scalar Lan80211.ap.wlan[0].radio receptionState:count 41
attr interpolationmode sample-hold
attr source receptionStateChanged
attr title "Radio reception state, count"
scalar Lan80211.ap.wlan[0].radio transmissionState:count 48
attr interpolationmode sample-hold
attr source transmissionStateChanged
attr title "Radio transmission state, count"
statistic Lan80211.ap.wlan[0].radio minSnir:histogram
field count 7
field mean 7393.0902214002
field stddev 3769.8281856349
field min 2549.7686628533
field max 11768.388248615
field sum 51751.631549801
field sqrsum 467874108.44758
attr source minimumSnir(packetSentToUpper)
attr title "Min SNIR, histogram"
bin	-inf	0
bin	200	0
bin	400	0
bin	600	0
bin	800	0
bin	1000	0
bin	1200	0
bin	1400	0
bin	1600	0
bin	1800	0
bin	2000	0
bin	2200	0
bin	2400	2
bin	2600	0
bin	2800	0
bin	3000	0
bin	3200	0
bin	3400	0
bin	3600	0
bin	3800	0
bin	4000	0
bin	4200	0
bin	4400	0
bin	4600	0
bin	4800	0
bin	5000	0
bin	5200	0
bin	5400	0
bin	5600	0
bin	5800	0
bin	6000	0
bin	6200	0
bin	6400	0
bin	6600	0
bin	6800	0
bin	7000	0
bin	7200	0
bin	7400	0
bin	7600	3
bin	7800	0
bin	8000	0
bin	8200	0
bin	8400	0
bin	8600	0
bin	8800	0
bin	9000	0
bin	9200	0
bin	9400	0
bin	9600	0
bin	9800	0
bin	10000	0
bin	10200	0
bin	10400	0
bin	10600	0
bin	10800	0
bin	11000	0
bin	11200	0
bin	11400	0
bin	11600	2
bin	11800	0
bin	12000	0
bin	12200	0
bin	12400	0
bin	12600	0
bin	12800	0
bin	13000	0
bin	13200	0
bin	13400	0
bin	13600	0
bin	13800	0
bin	14000	0
bin	14200	0
statistic Lan80211.ap.wlan[0].radio packetErrorRate:histogram
field count 7
field mean 0
field stddev 0
field min 0
field max 0
field sum 0
field sqrsum 0
attr source packetErrorRate(packetSentToUpper)
attr title "Packet error rate, histogram"
bin	-inf	0
bin	-0.5	0
bin	-0.48	0
bin	-0.46	0
bin	-0.44	0
bin	-0.42	0
bin	-0.4	0
bin	-0.38	0
bin	-0.36	0
bin	-0.34	0
bin	-0.32	0
bin	-0.3	0
bin	-0.28	0
bin	-0.26	0
bin	-0.24	0
bin	-0.22	0
bin	-0.2	0
bin	-0.18	0
bin	-0.16	0
bin	-0.14	0
bin	-0.12	0
bin	-0.1	0
bin	-0.08	0
bin	-0.06	0
bin	-0.04	0
bin	-0.02	0
bin	0	7
bin	0.02	0
bin	0.04	0
bin	0.06	0
bin	0.08	0
bin	0.1	0
bin	0.12	0
bin	0.14	0
bin	0.16	0
bin	0.18	0
bin	0.2	0
bin	0.22	0
bin	0.24	0
bin	0.26	0
bin	0.28	0
bin	0.3	0
bin	0.32	0
bin	0.34	0
bin	0.36	0
bin	0.38	0
bin	0.4	0
bin	0.42	0
bin	0.44	0
bin	0.46	0
bin	0.48	0
bin	0.5	0
statistic Lan80211.ap.wlan[0].radio bitErrorRate:histogram
field count 0
field mean -nan
field stddev nan
field min nan
field max nan
field sum 0
field sqrsum 0
attr source bitErrorRate(packetSentToUpper)
attr title "Bit error rate, histogram"
bin	-inf	0
bin	0	0
bin	1	0
statistic Lan80211.ap.wlan[0].radio symbolErrorRate:histogram
field count 0
field mean -nan
field stddev nan
field min nan
field max nan
field sum 0
field sqrsum 0
attr source symbolErrorRate(packetSentToUpper)
attr title "Symbol error rate, histogram"
bin	-inf	0
bin	0	0
bin	1	0

